
 *****************************************
 *** Specfem3D MPI database generation ***
 *****************************************

 Running Git package version of the code: 4.1.0
 which is Git unknown
 dating unknown

 This is process            0
 There are            4  MPI processes
 Processes are numbered from 0 to            3

 There is a total of            4  slices

 NGLLX =            5
 NGLLY =            5
 NGLLZ =            5

 Shape functions defined by NGNOD =            8  control nodes
 Surface shape functions defined by NGNOD2D =            4  control nodes
 Beware! Curvature (i.e. HEX27 elements) is not handled by our internal mesher

 velocity model:   default


 suppressing UTM projection

 no attenuation

 no anisotropy

 no oceans

 incorporating Stacey absorbing conditions

 using a CMTSOLUTION source
   with a Gaussian source time function


 ************************************
 reading partition files in the model
 ************************************

 external mesh points :        44466
 defined materials    :            1
 undefined materials  :            0
 total number of spectral elements:        37212
 absorbing boundaries:
   xmin,xmax :          882         882
   ymin,ymax :          882         882
   bottom,top:         1772        1772

   total number of C-PML elements in the global mesh:            0

 number of MPI partition interfaces:           10

   minimum memory used so far     :    31.7222462     MB per process
   minimum total memory requested :    144.992615     MB per process

 create regions:

   ...allocating arrays
     NGLLX   =            5
     NGLLY   =            5
     NGLLZ   =            5
     NGNOD   =            8
     NGNOD2D =            4

     main process setup:
     nspec           =         8989

     separating regular/irregular element shapes
     nspec regular   =            0
     nspec irregular =         8989

     absorbing boundary faces:
       num_abs_boundary_faces =         1311

     free surface faces:
       num_free_surface_faces =          429

   ... reading            1  faults from file DATA/Par_file_faults


   ...setting up jacobian

   ...indexing global points
      creating ibool indexing     : x min/max =   -21000.0000     /   21000.0000
      creating indirect addressing: nglob =       603330
      creating unique point locations

   ...resetting up jacobian in fault domains

   ...preparing MPI interfaces
      number of interfaces        :            2
      creating MPI indexing       : x min/max =   -21000.0000     /   21000.0000
                                    tolerance =    4.2000000000000004E-006

      total MPI interface points:        97800
      total assembled MPI interface points:       96210

   ...setting up absorbing boundaries
      boundary xmin   :         882
      boundary xmax   :         882
      boundary ymin   :         882
      boundary ymax   :         882
      boundary bottom :        1772
      boundary top    :        1772
      absorbing boundary:
      total number of free faces =         1772
      total number of faces      =         5300

   ...setting up mesh surface

   ...determining velocity model
               10  % time remaining:   8.2515366375445897E-008 s
               20  % time remaining:   7.3337357925993148E-008 s
               30  % time remaining:   6.4190339926426437E-008 s
               40  % time remaining:   5.4990633844226904E-008 s
               50  % time remaining:   4.5814457241704080E-008 s
               60  % time remaining:   3.6647566193096267E-008 s
               70  % time remaining:   2.7517882569384260E-008 s
               80  % time remaining:   1.8373933892235064E-008 s
               90  % time remaining:   9.2302412367075721E-009 s
              100  % time remaining:   9.1568497720295673E-011 s

   ...detecting acoustic-elastic-poroelastic surfaces
      total acoustic elements   :           0
      total elastic elements    :       37212
      total poroelastic elements:           0

      acoustic - elastic     coupling : total number of faces =            0
      acoustic - poroelastic coupling : total number of faces =            0
       elastic - poroelastic coupling : total number of faces =            0


   ...element inner/outer separation
      for overlapping of communications with calculations:
      percentage of   edge elements    11.6920700     %
      percentage of volume elements    88.3079300     %


   ...element mesh coloring
      use coloring =  F

   ...external binary models
      no external binary model used

   ...creating mass matrix

   ...setting up mesh adjacency

      mesh adjacency:
      total number of elements in this slice  =         8989

      maximum number of neighbors allowed     =          300
      minimum array memory required per slice =    10.3213844     (MB)

      maximum search elements                                      =         8989
      maximum of actual search elements (after distance criterion) =         8110

      estimated maximum element size            =    1365.30615
      maximum distance between neighbor centers =    4129.4877166515707

      maximum neighbors found per element =          144
          (maximum neighbor of neighbors) =          115
      total number of neighbors           =       924656

      Elapsed time for detection of neighbors in seconds =   0.55396600000000007


   ...saving mesh databases
      using binary file format
      database file (for rank 0): ./OUTPUT_FILES/DATABASES_MPI/proc000000_external_mesh.bin
      saving mesh files for AVS, OpenDX, Paraview
      saving additonal mesh files with surface/coupling points

   ...saving fault databases

   ...checking mesh resolution
 Mesh resolution:

 ********
 minimum and maximum number of elements
 and points in the CUBIT + SCOTCH mesh:

 NSPEC_global_min =         8989
 NSPEC_global_max =         9682
 NSPEC_global_max / NSPEC_global_min imbalance =    1.07709420      =    7.70942259      %
 NSPEC_global_sum =        37212

 NGLOB_global_min =       603330
 NGLOB_global_max =       646775
 NGLOB_global_max / NGLOB_global_min imbalance =    1.07200873      =    7.20086861      %
 NGLOB_global_sum =      2492970

 If you have elements of a single type (all acoustic, all elastic, all poroelastic, and without CPML)
 in the whole mesh, then there should be no significant imbalance in the above numbers.
 Otherwise, it is normal to have imbalance in elements and points because the domain decomposer
 compensates for the different cost of different elements by partitioning them unevenly among processes.
 ********


 ********
 Model: P   velocity min,max =    6000.00000       6000.00000
 Model: S   velocity min,max =    3464.00000       3464.00000

 Model: Poisson's ratio min,max =   0.250021994      0.250021994
 ********

 *********************************************
 *** Verification of simulation parameters ***
 *********************************************

 *** Xmin and Xmax of the model =   -21000.0000       21000.0000
 *** Ymin and Ymax of the model =   -21000.0000       21000.0000
 *** Zmin and Zmax of the model =   -21000.0000       0.00000000

 *** Max GLL point distance =    438.159241
 *** Min GLL point distance =    108.941475
 *** Max/min ratio =    4.02196884

 *** Max element size =    1365.30615
 *** Min element size =    630.907593
 *** Max/min ratio =    2.16403508

 *** Minimum period resolved =   0.492676854
 *** Maximum suggested time step =    9.05000046E-03

 Elapsed time for checking mesh resolution in seconds =    4.6160000000003976E-003
 saving VTK files for Courant number and minimum period


 mesh regions done

 min and max of elevation (i.e. height of the upper surface of the mesh) included in mesh in m is    0.0000000000000000          0.0000000000000000


 done mesh setup


 Repartition of elements:
 -----------------------

 load distribution:
   element loads: min/max =       368549      396962

   partition            0        has       368549  load units
   partition            1        has       385728  load units
   partition            2        has       374453  load units
   partition            3        has       396962  load units

   load per partition: min/max   =       368549      396962
   load per partition: imbalance =    7.15761185     %
                       (0% being totally balanced, 100% being unbalanced)

 total number of elements in mesh slice 0:         8989
 total number of   regular elements in mesh slice 0:            0
 total number of irregular elements in mesh slice 0:         8989
 total number of points in mesh slice 0:       603330

 total number of elements in entire mesh:        37212
 approximate total number of points in entire mesh (with duplicates on MPI edges):               2492970
 approximate total number of DOFs   in entire mesh (with duplicates on MPI edges):               7478910

 total number of time steps in the solver will be:         4000

 using single precision for the calculations

 smallest and largest possible floating-point numbers are:    1.17549435E-38   3.40282347E+38


 Elapsed time for mesh generation and buffer creation in seconds =    5.32366991
 Elapsed time for mesh generation and buffer creation in hh:mm:ss =    0 h 00 m 05 s

 End of mesh generation

 done

