 **********************************************
 **** Specfem 3-D Solver - MPI version f90 ****
 **********************************************

 Running Git package version of the code: 3.0.0
 which is Git undefined in the case of old tar ball builds
 dating undefined in the case of old tar ball builds




 There are            2  MPI processes
 Processes are numbered from 0 to            1

 There is a total of            2  slices

  NDIM =            3

  NGLLX =            5
  NGLLY =            5
  NGLLZ =            5

 using single precision for the calculations
 using force vectorization

 smallest and largest possible floating-point numbers are:    1.17549435E-38   3.40282347E+38

 velocity model:   tomo

 Reading mesh databases...
 done

 total acoustic elements    :           0
 total elastic elements     :        2514
 total poroelastic elements :           0

 Mesh resolution:

 ********
 minimum and maximum number of elements
 and points in the CUBIT + SCOTCH mesh:

 NSPEC_global_min =         1254
 NSPEC_global_max =         1260
 NSPEC_global_max / NSPEC_global_min imbalance =    1.00478470      =   0.478468895      %
 NSPEC_global_sum =         2514

 NGLOB_global_min =        87825
 NGLOB_global_max =        88125
 NGLOB_global_max / NGLOB_global_min imbalance =    1.00341594      =   0.341588378      %
 NGLOB_global_sum =       175950

 If you have elements of a single type (all acoustic, all elastic, all poroelastic, and without CPML)
 in the whole mesh, then there should be no significant imbalance in the above numbers.
 Otherwise, it is normal to have imbalance in elements and points because the domain decomposer
 compensates for the different cost of different elements by partitioning them unevenly among processes.
 ********


 ********
 Model: P   velocity min,max =    2500.00000       2507.00000
 Model: S   velocity min,max =    1500.00000       1504.04626

 Model: Poisson's ratio min,max =   0.218750030      0.218839794
 ********

 *********************************************
 *** Verification of simulation parameters ***
 *********************************************

 *** Xmin and Xmax of the model =    0.00000000       288.000000
 *** Ymin and Ymax of the model =    0.00000000       144.000000
 *** Zmin and Zmax of the model =   -70.5000000       0.00000000

 *** Max GLL point distance =    7.85585022
 *** Min GLL point distance =   0.259009361
 *** Max/min ratio =    30.3303719

 *** Max element size =    24.0000000
 *** Min element size =    1.50000000
 *** Max/min ratio =    16.0000000

 *** Minimum period resolved =    2.00000014E-02
 *** Maximum suggested time step =    5.17306762E-05

 *** for DT :    5.0000000000000002E-005
 *** Max stability for wave velocities =   0.483272254

 Elapsed time for checking mesh resolution in seconds =    1.4800000000000000E-003
 saving VTK files for Courant number and minimum period


 ******************************************
 There is a total of            2  slices
 ******************************************

 mesh surfaces:
   high-resolution  =  T
   nfaces per slice =           36          36

   total number of surface faces is           72

 surface movies:
   saving: particle velocities
   number of steps between frames =          200


 kd-tree:
   total data points:         1260
   theoretical   number of nodes:         2514
                tree memory size:    7.67211914E-02 MB
   actual        number of nodes:         2519
                tree memory size:    7.68737793E-02 MB
   maximum depth   :           12
   creation timing :    4.58002090E-04 (s)


 sources:           1

 ********************
  locating sources
 ********************

 reading source information from ./DATA/FORCESOLUTION file

 no UTM projection


 source #            1
   source located in slice            0
                  in element         1246
                  in elastic domain

   using force point source:
     xi coordinate of source in that element:  -0.47083333333333388
     eta coordinate of source in that element:  -0.91999999999999926
     gamma coordinate of source in that element:    1.0000000000000000

     component of direction vector in East direction:    0.00000000
     component of direction vector in North direction:    0.00000000
     component of direction vector in Vertical direction:   -1.00000000

     nu1 =    1.0000000000000000        0.0000000000000000        0.0000000000000000
     nu2 =    0.0000000000000000        1.0000000000000000        0.0000000000000000
     nu3 =    0.0000000000000000        0.0000000000000000        1.0000000000000000

     at (x,y,z) coordinates =    78.349999999999980        72.959999999999994        0.0000000000000000

   source time function:
     using Ricker source time function
     using a source of dominant frequency    30.000000000000000
     t0_ricker =    4.0000000000000001E-002
     Ricker frequency:    30.000000000000000       Hz

     time shift:    0.0000000000000000       seconds

   magnitude of the source:
     factor =    10000000000.000000

   original (requested) position of the source:

             latitude:    72.959999999999994
            longitude:    78.349999999999994

                x:    78.349999999999980
                y:    72.959999999999994
            depth:    0.0000000000000000       km
   topo elevation:    0.0000000000000000

   position of the source that will be used:

                x:    78.349999999999980
                y:    72.959999999999994
            depth:    0.0000000000000000       km
                z:    0.0000000000000000

   error in location of the source:    1.42108547E-14  m



 maximum error in location of the sources:    1.42108547E-14  m


 Elapsed time for detection of sources in seconds =    5.0299999999999651E-004

 End of source detection - done


 Each source is being convolved with HDUR_MOVIE =    0.0000000000000000


 receivers:

 there are          720  stations in file ./DATA/STATIONS
 saving          720  stations inside the model in file ./DATA/STATIONS_FILTERED
 excluding            0  stations located outside the model


 Total number of receivers =          720


 ********************
  locating receivers
 ********************

 reading receiver information from ./DATA/STATIONS_FILTERED file


 station #            1     DB    X1
      original latitude:    80.0100021
      original longitude:    186.940002
      original x:    186.940002
      original y:    80.0100021
      original depth:    0.00000000      m
      horizontal distance:   0.108818613
      target x, y, z:    186.940002       80.0100021       0.00000000
      closest estimate found:    0.00000000      m away

      receiver located in slice            1
                       in element         1238
                       in elastic domain
      at coordinates:
      xi    =   0.57833333333333292
      eta   =  -0.33249999999999963
      gamma =    1.0000000000000000
      rotation matrix:
      nu1 =    1.00000000       0.00000000       0.00000000
      nu2 =    0.00000000       1.00000000       0.00000000
      nu3 =    0.00000000       0.00000000       1.00000000
      x:    186.94000000000000
      y:    80.010000000000005
      depth:    0.0000000000000000       m
      z:    0.0000000000000000



 station #            2     DB    X2
      original latitude:    80.0299988
      original longitude:    185.929993
      original x:    185.929993
      original y:    80.0299988
      original depth:    0.00000000      m
      horizontal distance:   0.107812062
      target x, y, z:    185.929993       80.0299988       0.00000000
      closest estimate found:    5.68434189E-14  m away

      receiver located in slice            1
                       in element         1238
                       in elastic domain
      at coordinates:
      xi    =   0.49416666666666947
      eta   =  -0.33083333333333331
      gamma =    1.0000000000000000
      rotation matrix:
      nu1 =    1.00000000       0.00000000       0.00000000
      nu2 =    0.00000000       1.00000000       0.00000000
      nu3 =    0.00000000       0.00000000       1.00000000
      x:    185.93000000000006
      y:    80.030000000000001
      depth:    0.0000000000000000       m
      z:    0.0000000000000000



 station #            3     DB    X3
      original latitude:    80.0500031
      original longitude:    184.899994
      original x:    184.899994
      original y:    80.0500031
      original depth:    0.00000000      m
      horizontal distance:   0.106785633
      target x, y, z:    184.899994       80.0500031       0.00000000
      closest estimate found:    0.00000000      m away

      receiver located in slice            1
                       in element         1238
                       in elastic domain
      at coordinates:
      xi    =   0.40833333333333366
      eta   =  -0.32916666666666694
      gamma =    1.0000000000000000
      rotation matrix:
      nu1 =    1.00000000       0.00000000       0.00000000
      nu2 =    0.00000000       1.00000000       0.00000000
      nu3 =    0.00000000       0.00000000       1.00000000
      x:    184.90000000000001
      y:    80.049999999999997
      depth:    0.0000000000000000       m
      z:    0.0000000000000000



 station #            4     DB    X4
      original latitude:    80.0699997
      original longitude:    183.889999
      original x:    183.889999
      original y:    80.0699997
      original depth:    0.00000000      m
      horizontal distance:   0.105779223
      target x, y, z:    183.889999       80.0699997       0.00000000
      closest estimate found:    0.00000000      m away

      receiver located in slice            1
                       in element         1238
                       in elastic domain
      at coordinates:
      xi    =   0.32416666666666549
      eta   =  -0.32750000000000057
      gamma =    1.0000000000000000
      rotation matrix:
      nu1 =    1.00000000       0.00000000       0.00000000
      nu2 =    0.00000000       1.00000000       0.00000000
      nu3 =    0.00000000       0.00000000       1.00000000
      x:    183.88999999999999
      y:    80.069999999999993
      depth:    0.0000000000000000       m
      z:    0.0000000000000000



 station #            5     DB    X5
      original latitude:    80.0100021
      original longitude:    182.929993
      original x:    182.929993
      original y:    80.0100021
      original depth:    0.00000000      m
      horizontal distance:   0.104817361
      target x, y, z:    182.929993       80.0100021       0.00000000
      closest estimate found:    3.17764376E-14  m away

      receiver located in slice            1
                       in element         1238
                       in elastic domain
      at coordinates:
      xi    =   0.24416666666666723
      eta   =  -0.33249999999999957
      gamma =    1.0000000000000000
      rotation matrix:
      nu1 =    1.00000000       0.00000000       0.00000000
      nu2 =    0.00000000       1.00000000       0.00000000
      nu3 =    0.00000000       0.00000000       1.00000000
      x:    182.93000000000004
      y:    80.010000000000019
      depth:    0.0000000000000000       m
      z:    0.0000000000000000



 station #            6     DB    X6
      original latitude:    80.0299988
      original longitude:    181.910004
      original x:    181.910004
      original y:    80.0299988
      original depth:    0.00000000      m
      horizontal distance:   0.103801049
      target x, y, z:    181.910004       80.0299988       0.00000000
      closest estimate found:    3.17764376E-14  m away

      receiver located in slice            1
                       in element         1238
                       in elastic domain
      at coordinates:
      xi    =   0.15916666666666401
      eta   =  -0.33083333333333209
      gamma =    1.0000000000000000
      rotation matrix:
      nu1 =    1.00000000       0.00000000       0.00000000
      nu2 =    0.00000000       1.00000000       0.00000000
      nu3 =    0.00000000       0.00000000       1.00000000
      x:    181.90999999999997
      y:    80.030000000000015
      depth:    0.0000000000000000       m
      z:    0.0000000000000000



 station #            7     DB    X7
      original latitude:    80.0500031
      original longitude:    180.899994
      original x:    180.899994
      original y:    80.0500031
      original depth:    0.00000000      m
      horizontal distance:   0.102794796
      target x, y, z:    180.899994       80.0500031       0.00000000
      closest estimate found:    0.00000000      m away

      receiver located in slice            1
                       in element         1238
                       in elastic domain
      at coordinates:
      xi    =    7.5000000000000469E-002
      eta   =  -0.32916666666666689
      gamma =    1.0000000000000000
      rotation matrix:
      nu1 =    1.00000000       0.00000000       0.00000000
      nu2 =    0.00000000       1.00000000       0.00000000
      nu3 =    0.00000000       0.00000000       1.00000000
      x:    180.90000000000001
      y:    80.049999999999997
      depth:    0.0000000000000000       m
      z:    0.0000000000000000



 station #            8     DB    X8
      original latitude:    79.9899979
      original longitude:    179.940002
      original x:    179.940002
      original y:    79.9899979
      original depth:    0.00000000      m
      horizontal distance:   0.101832949
      target x, y, z:    179.940002       79.9899979       0.00000000
      closest estimate found:    5.85928536E-14  m away

      receiver located in slice            1
                       in element         1238
                       in elastic domain
      at coordinates:
      xi    =   -4.9999999999978204E-003
      eta   =  -0.33416666666666595
      gamma =    1.0000000000000000
      rotation matrix:
      nu1 =    1.00000000       0.00000000       0.00000000
      nu2 =    0.00000000       1.00000000       0.00000000
      nu3 =    0.00000000       0.00000000       1.00000000
      x:    179.94000000000005
      y:    79.990000000000009
      depth:    0.0000000000000000       m
      z:    0.0000000000000000



 station #            9     DB    X9
      original latitude:    80.0199966
      original longitude:    178.919998
      original x:    178.919998
      original y:    80.0199966
      original depth:    0.00000000      m
      horizontal distance:   0.100817502
      target x, y, z:    178.919998       80.0199966       0.00000000
      closest estimate found:    0.00000000      m away

      receiver located in slice            1
                       in element         1238
                       in elastic domain
      at coordinates:
      xi    =   -9.0000000000001038E-002
      eta   =  -0.33166666666666700
      gamma =    1.0000000000000000
      rotation matrix:
      nu1 =    1.00000000       0.00000000       0.00000000
      nu2 =    0.00000000       1.00000000       0.00000000
      nu3 =    0.00000000       0.00000000       1.00000000
      x:    178.91999999999999
      y:    80.019999999999996
      depth:    0.0000000000000000       m
      z:    0.0000000000000000



 station #           10     DB    X10
      original latitude:    80.0400009
      original longitude:    177.899994
      original x:    177.899994
      original y:    80.0400009
      original depth:    0.00000000      m
      horizontal distance:    9.98014510E-02
      target x, y, z:    177.899994       80.0400009       0.00000000
      closest estimate found:    1.42108547E-14  m away

      receiver located in slice            1
                       in element         1238
                       in elastic domain
      at coordinates:
      xi    =  -0.17499999999999952
      eta   =  -0.33000000000000063
      gamma =    1.0000000000000000
      rotation matrix:
      nu1 =    1.00000000       0.00000000       0.00000000
      nu2 =    0.00000000       1.00000000       0.00000000
      nu3 =    0.00000000       0.00000000       1.00000000
      x:    177.90000000000001
      y:    80.039999999999992
      depth:    0.0000000000000000       m
      z:    0.0000000000000000



 station #           11     DB    X11
      original latitude:    80.0599976
      original longitude:    176.889999
      original x:    176.889999
      original y:    80.0599976
      original depth:    0.00000000      m
      horizontal distance:    9.87954512E-02
      target x, y, z:    176.889999       80.0599976       0.00000000
      closest estimate found:    2.84217094E-14  m away

      receiver located in slice            1
                       in element         1238
                       in elastic domain
      at coordinates:
      xi    =  -0.25916666666666538
      eta   =  -0.32833333333333314
      gamma =    1.0000000000000000
      rotation matrix:
      nu1 =    1.00000000       0.00000000       0.00000000
      nu2 =    0.00000000       1.00000000       0.00000000
      nu3 =    0.00000000       0.00000000       1.00000000
      x:    176.89000000000001
      y:    80.060000000000002
      depth:    0.0000000000000000       m
      z:    0.0000000000000000



 station #           12     DB    X12
      original latitude:    80.0000000
      original longitude:    175.929993
      original x:    175.929993
      original y:    80.0000000
      original depth:    0.00000000      m
      horizontal distance:    9.78336260E-02
      target x, y, z:    175.929993       80.0000000       0.00000000
      closest estimate found:    0.00000000      m away

      receiver located in slice            1
                       in element         1238
                       in elastic domain
      at coordinates:
      xi    =  -0.33916666666666856
      eta   =  -0.33333333333333337
      gamma =    1.0000000000000000
      rotation matrix:
      nu1 =    1.00000000       0.00000000       0.00000000
      nu2 =    0.00000000       1.00000000       0.00000000
      nu3 =    0.00000000       0.00000000       1.00000000
      x:    175.93000000000001
      y:    80.000000000000000
      depth:    0.0000000000000000       m
      z:    0.0000000000000000



 station #           13     DB    X13
      original latitude:    80.0199966
      original longitude:    174.910004
      original x:    174.910004
      original y:    80.0199966
      original depth:    0.00000000      m
      horizontal distance:    9.68177542E-02
      target x, y, z:    174.910004       80.0199966       0.00000000
      closest estimate found:    2.84217094E-14  m away

      receiver located in slice            1
                       in element         1238
                       in elastic domain
      at coordinates:
      xi    =  -0.42416666666666702
      eta   =  -0.33166666666666705
      gamma =    1.0000000000000000
      rotation matrix:
      nu1 =    1.00000000       0.00000000       0.00000000
      nu2 =    0.00000000       1.00000000       0.00000000
      nu3 =    0.00000000       0.00000000       1.00000000
      x:    174.90999999999997
      y:    80.019999999999996
      depth:    0.0000000000000000       m
      z:    0.0000000000000000



 station #           14     DB    X14
      original latitude:    80.0400009
      original longitude:    173.899994
      original x:    173.899994
      original y:    80.0400009
      original depth:    0.00000000      m
      horizontal distance:    9.58119482E-02
      target x, y, z:    173.899994       80.0400009       0.00000000
      closest estimate found:    3.17764376E-14  m away

      receiver located in slice            1
                       in element         1238
                       in elastic domain
      at coordinates:
      xi    =  -0.50833333333333297
      eta   =  -0.32999999999999952
      gamma =    1.0000000000000000
      rotation matrix:
      nu1 =    1.00000000       0.00000000       0.00000000
      nu2 =    0.00000000       1.00000000       0.00000000
      nu3 =    0.00000000       0.00000000       1.00000000
      x:    173.89999999999998
      y:    80.040000000000020
      depth:    0.0000000000000000       m
      z:    0.0000000000000000



 station #           15     DB    X15
      original latitude:    79.9800034
      original longitude:    172.940002
      original x:    172.940002
      original y:    79.9800034
      original depth:    0.00000000      m
      horizontal distance:    9.48501378E-02
      target x, y, z:    172.940002       79.9800034       0.00000000
      closest estimate found:    0.00000000      m away

      receiver located in slice            1
                       in element         1238
                       in elastic domain
      at coordinates:
      xi    =  -0.58833333333333360
      eta   =  -0.33499999999999974
      gamma =    1.0000000000000000
      rotation matrix:
      nu1 =    1.00000000       0.00000000       0.00000000
      nu2 =    0.00000000       1.00000000       0.00000000
      nu3 =    0.00000000       0.00000000       1.00000000
      x:    172.94000000000000
      y:    79.980000000000004
      depth:    0.0000000000000000       m
      z:    0.0000000000000000



 station #           16     DB    X16
      original latitude:    80.0100021
      original longitude:    171.919998
      original x:    171.919998
      original y:    80.0100021
      original depth:    0.00000000      m
      horizontal distance:    9.38352123E-02
      target x, y, z:    171.919998       80.0100021       0.00000000
      closest estimate found:    2.84217094E-14  m away

      receiver located in slice            1
                       in element         1238
                       in elastic domain
      at coordinates:
      xi    =  -0.67333333333333445
      eta   =  -0.33249999999999963
      gamma =    1.0000000000000000
      rotation matrix:
      nu1 =    1.00000000       0.00000000       0.00000000
      nu2 =    0.00000000       1.00000000       0.00000000
      nu3 =    0.00000000       0.00000000       1.00000000
      x:    171.91999999999996
      y:    80.010000000000005
      depth:    0.0000000000000000       m
      z:    0.0000000000000000



 station #           17     DB    X17
      original latitude:    80.0299988
      original longitude:    170.910004
      original x:    170.910004
      original y:    80.0299988
      original depth:    0.00000000      m
      horizontal distance:    9.28296223E-02
      target x, y, z:    170.910004       80.0299988       0.00000000
      closest estimate found:    2.84217094E-14  m away

      receiver located in slice            1
                       in element         1238
                       in elastic domain
      at coordinates:
      xi    =  -0.75750000000000040
      eta   =  -0.33083333333333331
      gamma =    1.0000000000000000
      rotation matrix:
      nu1 =    1.00000000       0.00000000       0.00000000
      nu2 =    0.00000000       1.00000000       0.00000000
      nu3 =    0.00000000       0.00000000       1.00000000
      x:    170.90999999999997
      y:    80.030000000000001
      depth:    0.0000000000000000       m
      z:    0.0000000000000000



 station #           18     DB    X18
      original latitude:    80.0500031
      original longitude:    169.889999
      original x:    169.889999
      original y:    80.0500031
      original depth:    0.00000000      m
      horizontal distance:    9.18141603E-02
      target x, y, z:    169.889999       80.0500031       0.00000000
      closest estimate found:    0.00000000      m away

      receiver located in slice            1
                       in element         1238
                       in elastic domain
      at coordinates:
      xi    =  -0.84250000000000114
      eta   =  -0.32916666666666689
      gamma =    1.0000000000000000
      rotation matrix:
      nu1 =    1.00000000       0.00000000       0.00000000
      nu2 =    0.00000000       1.00000000       0.00000000
      nu3 =    0.00000000       0.00000000       1.00000000
      x:    169.88999999999999
      y:    80.049999999999997
      depth:    0.0000000000000000       m
      z:    0.0000000000000000



 station #           19     DB    X19
      original latitude:    79.9899979
      original longitude:    168.929993
      original x:    168.929993
      original y:    79.9899979
      original depth:    0.00000000      m
      horizontal distance:    9.08523947E-02
      target x, y, z:    168.929993       79.9899979       0.00000000
      closest estimate found:    3.17764376E-14  m away

      receiver located in slice            1
                       in element         1238
                       in elastic domain
      at coordinates:
      xi    =  -0.92249999999999943
      eta   =  -0.33416666666666595
      gamma =    1.0000000000000000
      rotation matrix:
      nu1 =    1.00000000       0.00000000       0.00000000
      nu2 =    0.00000000       1.00000000       0.00000000
      nu3 =    0.00000000       0.00000000       1.00000000
      x:    168.93000000000004
      y:    79.990000000000009
      depth:    0.0000000000000000       m
      z:    0.0000000000000000



 station #           20     DB    X20
      original latitude:    80.0100021
      original longitude:    167.919998
      original x:    167.919998
      original y:    80.0100021
      original depth:    0.00000000      m
      horizontal distance:    8.98470208E-02
      target x, y, z:    167.919998       80.0100021       0.00000000
      closest estimate found:    0.00000000      m away

      receiver located in slice            1
                       in element         1237
                       in elastic domain
      at coordinates:
      xi    =   0.99333333333333229
      eta   =  -0.33249999999999963
      gamma =    1.0000000000000000
      rotation matrix:
      nu1 =    1.00000000       0.00000000       0.00000000
      nu2 =    0.00000000       1.00000000       0.00000000
      nu3 =    0.00000000       0.00000000       1.00000000
      x:    167.91999999999999
      y:    80.010000000000005
      depth:    0.0000000000000000       m
      z:    0.0000000000000000



 station #           21     DB    X21
      original latitude:    80.0299988
      original longitude:    166.899994
      original x:    166.899994
      original y:    80.0299988
      original depth:    0.00000000      m
      horizontal distance:    8.88317898E-02
      target x, y, z:    166.899994       80.0299988       0.00000000
      closest estimate found:    0.00000000      m away

      receiver located in slice            1
                       in element         1237
                       in elastic domain
      at coordinates:
      xi    =   0.90833333333333377
      eta   =  -0.33083333333333331
      gamma =    1.0000000000000000
      rotation matrix:
      nu1 =    1.00000000       0.00000000       0.00000000
      nu2 =    0.00000000       1.00000000       0.00000000
      nu3 =    0.00000000       0.00000000       1.00000000
      x:    166.90000000000001
      y:    80.030000000000001
      depth:    0.0000000000000000       m
      z:    0.0000000000000000



 station #           22     DB    X22
      original latitude:    80.0599976
      original longitude:    165.889999
      original x:    165.889999
      original y:    80.0599976
      original depth:    0.00000000      m
      horizontal distance:    8.78274515E-02
      target x, y, z:    165.889999       80.0599976       0.00000000
      closest estimate found:    0.00000000      m away

      receiver located in slice            1
                       in element         1237
                       in elastic domain
      at coordinates:
      xi    =   0.82416666666666538
      eta   =  -0.32833333333333331
      gamma =    1.0000000000000000
      rotation matrix:
      nu1 =    1.00000000       0.00000000       0.00000000
      nu2 =    0.00000000       1.00000000       0.00000000
      nu3 =    0.00000000       0.00000000       1.00000000
      x:    165.88999999999999
      y:    80.060000000000002
      depth:    0.0000000000000000       m
      z:    0.0000000000000000



 station #           23     DB    X23
      original latitude:    80.0000000
      original longitude:    164.929993
      original x:    164.929993
      original y:    80.0000000
      original depth:    0.00000000      m
      horizontal distance:    8.68657455E-02
      target x, y, z:    164.929993       80.0000000       0.00000000
      closest estimate found:    0.00000000      m away

      receiver located in slice            1
                       in element         1237
                       in elastic domain
      at coordinates:
      xi    =   0.74416666666666709
      eta   =  -0.33333333333333348
      gamma =    1.0000000000000000
      rotation matrix:
      nu1 =    1.00000000       0.00000000       0.00000000
      nu2 =    0.00000000       1.00000000       0.00000000
      nu3 =    0.00000000       0.00000000       1.00000000
      x:    164.93000000000001
      y:    80.000000000000000
      depth:    0.0000000000000000       m
      z:    0.0000000000000000



 station #           24     DB    X24
      original latitude:    80.0199966
      original longitude:    163.910004
      original x:    163.910004
      original y:    80.0199966
      original depth:    0.00000000      m
      horizontal distance:    8.58507827E-02
      target x, y, z:    163.910004       80.0199966       0.00000000
      closest estimate found:    2.84217094E-14  m away

      receiver located in slice            1
                       in element         1237
                       in elastic domain
      at coordinates:
      xi    =   0.65916666666666857
      eta   =  -0.33166666666666716
      gamma =    1.0000000000000000
      rotation matrix:
      nu1 =    1.00000000       0.00000000       0.00000000
      nu2 =    0.00000000       1.00000000       0.00000000
      nu3 =    0.00000000       0.00000000       1.00000000
      x:    163.91000000000003
      y:    80.019999999999996
      depth:    0.0000000000000000       m
      z:    0.0000000000000000



 station #           25     DB    X25
      original latitude:    80.0400009
      original longitude:    162.899994
      original x:    162.899994
      original y:    80.0400009
      original depth:    0.00000000      m
      horizontal distance:    8.48459154E-02
      target x, y, z:    162.899994       80.0400009       0.00000000
      closest estimate found:    3.17764376E-14  m away

      receiver located in slice            1
                       in element         1237
                       in elastic domain
      at coordinates:
      xi    =   0.57500000000000029
      eta   =  -0.32999999999999846
      gamma =    1.0000000000000000
      rotation matrix:
      nu1 =    1.00000000       0.00000000       0.00000000
      nu2 =    0.00000000       1.00000000       0.00000000
      nu3 =    0.00000000       0.00000000       1.00000000
      x:    162.89999999999998
      y:    80.040000000000020
      depth:    0.0000000000000000       m
      z:    0.0000000000000000



 station #           26     DB    X26
      original latitude:    79.9800034
      original longitude:    161.940002
      original x:    161.940002
      original y:    79.9800034
      original depth:    0.00000000      m
      horizontal distance:    8.38842541E-02
      target x, y, z:    161.940002       79.9800034       0.00000000
      closest estimate found:    3.17764376E-14  m away

      receiver located in slice            1
                       in element         1237
                       in elastic domain
      at coordinates:
      xi    =   0.49499999999999716
      eta   =  -0.33499999999999985
      gamma =    1.0000000000000000
      rotation matrix:
      nu1 =    1.00000000       0.00000000       0.00000000
      nu2 =    0.00000000       1.00000000       0.00000000
      nu3 =    0.00000000       0.00000000       1.00000000
      x:    161.93999999999997
      y:    79.979999999999990
      depth:    0.0000000000000000       m
      z:    0.0000000000000000



 station #           27     DB    X27
      original latitude:    80.0000000
      original longitude:    160.919998
      original x:    160.919998
      original y:    80.0000000
      original depth:    0.00000000      m
      horizontal distance:    8.28695744E-02
      target x, y, z:    160.919998       80.0000000       0.00000000
      closest estimate found:    0.00000000      m away

      receiver located in slice            1
                       in element         1237
                       in elastic domain
      at coordinates:
      xi    =   0.40999999999999870
      eta   =  -0.33333333333333348
      gamma =    1.0000000000000000
      rotation matrix:
      nu1 =    1.00000000       0.00000000       0.00000000
      nu2 =    0.00000000       1.00000000       0.00000000
      nu3 =    0.00000000       0.00000000       1.00000000
      x:    160.91999999999999
      y:    80.000000000000000
      depth:    0.0000000000000000       m
      z:    0.0000000000000000



 station #           28     DB    X28
      original latitude:    80.0199966
      original longitude:    159.910004
      original x:    159.910004
      original y:    80.0199966
      original depth:    0.00000000      m
      horizontal distance:    8.18649903E-02
      target x, y, z:    159.910004       80.0199966       0.00000000
      closest estimate found:    0.00000000      m away

      receiver located in slice            1
                       in element         1237
                       in elastic domain
      at coordinates:
      xi    =   0.32583333333333320
      eta   =  -0.33166666666666705
      gamma =    1.0000000000000000
      rotation matrix:
      nu1 =    1.00000000       0.00000000       0.00000000
      nu2 =    0.00000000       1.00000000       0.00000000
      nu3 =    0.00000000       0.00000000       1.00000000
      x:    159.91000000000000
      y:    80.019999999999996
      depth:    0.0000000000000000       m
      z:    0.0000000000000000



 station #           29     DB    X29
      original latitude:    80.0500031
      original longitude:    158.889999
      original x:    158.889999
      original y:    80.0500031
      original depth:    0.00000000      m
      horizontal distance:    8.08514655E-02
      target x, y, z:    158.889999       80.0500031       0.00000000
      closest estimate found:    0.00000000      m away

      receiver located in slice            1
                       in element         1237
                       in elastic domain
      at coordinates:
      xi    =   0.24083333333333232
      eta   =  -0.32916666666666694
      gamma =    1.0000000000000000
      rotation matrix:
      nu1 =    1.00000000       0.00000000       0.00000000
      nu2 =    0.00000000       1.00000000       0.00000000
      nu3 =    0.00000000       0.00000000       1.00000000
      x:    158.88999999999999
      y:    80.049999999999997
      depth:    0.0000000000000000       m
      z:    0.0000000000000000



 station #           30     DB    X30
      original latitude:    79.9899979
      original longitude:    157.929993
      original x:    157.929993
      original y:    79.9899979
      original depth:    0.00000000      m
      horizontal distance:    7.98899084E-02
      target x, y, z:    157.929993       79.9899979       0.00000000
      closest estimate found:    0.00000000      m away

      receiver located in slice            1
                       in element         1237
                       in elastic domain
      at coordinates:
      xi    =   0.16083333333333397
      eta   =  -0.33416666666666717
      gamma =    1.0000000000000000
      rotation matrix:
      nu1 =    1.00000000       0.00000000       0.00000000
      nu2 =    0.00000000       1.00000000       0.00000000
      nu3 =    0.00000000       0.00000000       1.00000000
      x:    157.93000000000001
      y:    79.989999999999995
      depth:    0.0000000000000000       m
      z:    0.0000000000000000



 station #           31     DB    X31
      original latitude:    80.0100021
      original longitude:    156.919998
      original x:    156.919998
      original y:    80.0100021
      original depth:    0.00000000      m
      horizontal distance:    7.88856596E-02
      target x, y, z:    156.919998       80.0100021       0.00000000
      closest estimate found:    0.00000000      m away

      receiver located in slice            1
                       in element         1237
                       in elastic domain
      at coordinates:
      xi    =    7.6666666666665662E-002
      eta   =  -0.33249999999999963
      gamma =    1.0000000000000000
      rotation matrix:
      nu1 =    1.00000000       0.00000000       0.00000000
      nu2 =    0.00000000       1.00000000       0.00000000
      nu3 =    0.00000000       0.00000000       1.00000000
      x:    156.91999999999999
      y:    80.010000000000005
      depth:    0.0000000000000000       m
      z:    0.0000000000000000



 station #           32     DB    X32
      original latitude:    80.0299988
      original longitude:    155.899994
      original x:    155.899994
      original y:    80.0299988
      original depth:    0.00000000      m
      horizontal distance:    7.78716058E-02
      target x, y, z:    155.899994       80.0299988       0.00000000
      closest estimate found:    0.00000000      m away

      receiver located in slice            1
                       in element         1237
                       in elastic domain
      at coordinates:
      xi    =   -8.3333333333352310E-003
      eta   =  -0.33083333333333331
      gamma =    1.0000000000000000
      rotation matrix:
      nu1 =    1.00000000       0.00000000       0.00000000
      nu2 =    0.00000000       1.00000000       0.00000000
      nu3 =    0.00000000       0.00000000       1.00000000
      x:    155.90000000000001
      y:    80.030000000000001
      depth:    0.0000000000000000       m
      z:    0.0000000000000000



 station #           33     DB    X33
      original latitude:    79.9700012
      original longitude:    154.940002
      original x:    154.940002
      original y:    79.9700012
      original depth:    0.00000000      m
      horizontal distance:    7.69101307E-02
      target x, y, z:    154.940002       79.9700012       0.00000000
      closest estimate found:    0.00000000      m away

      receiver located in slice            1
                       in element         1237
                       in elastic domain
      at coordinates:
      xi    =   -8.8333333333333555E-002
      eta   =  -0.33583333333333348
      gamma =    1.0000000000000000
      rotation matrix:
      nu1 =    1.00000000       0.00000000       0.00000000
      nu2 =    0.00000000       1.00000000       0.00000000
      nu3 =    0.00000000       0.00000000       1.00000000
      x:    154.94000000000000
      y:    79.969999999999999
      depth:    0.0000000000000000       m
      z:    0.0000000000000000



 station #           34     DB    X34
      original latitude:    79.9899979
      original longitude:    153.929993
      original x:    153.929993
      original y:    79.9899979
      original depth:    0.00000000      m
      horizontal distance:    7.59062394E-02
      target x, y, z:    153.929993       79.9899979       0.00000000
      closest estimate found:    0.00000000      m away

      receiver located in slice            1
                       in element         1237
                       in elastic domain
      at coordinates:
      xi    =  -0.17249999999999951
      eta   =  -0.33416666666666717
      gamma =    1.0000000000000000
      rotation matrix:
      nu1 =    1.00000000       0.00000000       0.00000000
      nu2 =    0.00000000       1.00000000       0.00000000
      nu3 =    0.00000000       0.00000000       1.00000000
      x:    153.93000000000001
      y:    79.989999999999995
      depth:    0.0000000000000000       m
      z:    0.0000000000000000



 station #           35     DB    X35
      original latitude:    80.0100021
      original longitude:    152.910004
      original x:    152.910004
      original y:    80.0100021
      original depth:    0.00000000      m
      horizontal distance:    7.48925656E-02
      target x, y, z:    152.910004       80.0100021       0.00000000
      closest estimate found:    0.00000000      m away

      receiver located in slice            1
                       in element         1237
                       in elastic domain
      at coordinates:
      xi    =  -0.25750000000000040
      eta   =  -0.33249999999999963
      gamma =    1.0000000000000000
      rotation matrix:
      nu1 =    1.00000000       0.00000000       0.00000000
      nu2 =    0.00000000       1.00000000       0.00000000
      nu3 =    0.00000000       0.00000000       1.00000000
      x:    152.91000000000000
      y:    80.010000000000005
      depth:    0.0000000000000000       m
      z:    0.0000000000000000



 station #           36     DB    X36
      original latitude:    80.0400009
      original longitude:    151.889999
      original x:    151.889999
      original y:    80.0400009
      original depth:    0.00000000      m
      horizontal distance:    7.38800243E-02
      target x, y, z:    151.889999       80.0400009       0.00000000
      closest estimate found:    0.00000000      m away

      receiver located in slice            1
                       in element         1237
                       in elastic domain
      at coordinates:
      xi    =  -0.34250000000000119
      eta   =  -0.32999999999999952
      gamma =    1.0000000000000000
      rotation matrix:
      nu1 =    1.00000000       0.00000000       0.00000000
      nu2 =    0.00000000       1.00000000       0.00000000
      nu3 =    0.00000000       0.00000000       1.00000000
      x:    151.88999999999999
      y:    80.040000000000006
      depth:    0.0000000000000000       m
      z:    0.0000000000000000



 station #           37     DB    X37
      original latitude:    79.9800034
      original longitude:    150.940002
      original x:    150.940002
      original y:    79.9800034
      original depth:    0.00000000      m
      horizontal distance:    7.29286522E-02
      target x, y, z:    150.940002       79.9800034       0.00000000
      closest estimate found:    1.42108547E-14  m away

      receiver located in slice            1
                       in element         1237
                       in elastic domain
      at coordinates:
      xi    =  -0.42166666666666697
      eta   =  -0.33499999999999858
      gamma =    1.0000000000000000
      rotation matrix:
      nu1 =    1.00000000       0.00000000       0.00000000
      nu2 =    0.00000000       1.00000000       0.00000000
      nu3 =    0.00000000       0.00000000       1.00000000
      x:    150.94000000000000
      y:    79.980000000000018
      depth:    0.0000000000000000       m
      z:    0.0000000000000000



 station #           38     DB    X38
      original latitude:    80.0000000
      original longitude:    149.919998
      original x:    149.919998
      original y:    80.0000000
      original depth:    0.00000000      m
      horizontal distance:    7.19154105E-02
      target x, y, z:    149.919998       80.0000000       0.00000000
      closest estimate found:    0.00000000      m away

      receiver located in slice            1
                       in element         1237
                       in elastic domain
      at coordinates:
      xi    =  -0.50666666666666793
      eta   =  -0.33333333333333337
      gamma =    1.0000000000000000
      rotation matrix:
      nu1 =    1.00000000       0.00000000       0.00000000
      nu2 =    0.00000000       1.00000000       0.00000000
      nu3 =    0.00000000       0.00000000       1.00000000
      x:    149.91999999999999
      y:    80.000000000000000
      depth:    0.0000000000000000       m
      z:    0.0000000000000000



 station #           39     DB    X39
      original latitude:    80.0199966
      original longitude:    148.899994
      original x:    148.899994
      original y:    80.0199966
      original depth:    0.00000000      m
      horizontal distance:    7.09023699E-02
      target x, y, z:    148.899994       80.0199966       0.00000000
      closest estimate found:    0.00000000      m away

      receiver located in slice            1
                       in element         1237
                       in elastic domain
      at coordinates:
      xi    =  -0.59166666666666634
      eta   =  -0.33166666666666705
      gamma =    1.0000000000000000
      rotation matrix:
      nu1 =    1.00000000       0.00000000       0.00000000
      nu2 =    0.00000000       1.00000000       0.00000000
      nu3 =    0.00000000       0.00000000       1.00000000
      x:    148.90000000000001
      y:    80.019999999999996
      depth:    0.0000000000000000       m
      z:    0.0000000000000000



 station #           40     DB    X40
      original latitude:    79.9599991
      original longitude:    147.949997
      original x:    147.949997
      original y:    79.9599991
      original depth:    0.00000000      m
      horizontal distance:    6.99511245E-02
      target x, y, z:    147.949997       79.9599991       0.00000000
      closest estimate found:    0.00000000      m away

      receiver located in slice            1
                       in element         1237
                       in elastic domain
      at coordinates:
      xi    =  -0.67083333333333450
      eta   =  -0.33666666666666722
      gamma =    1.0000000000000000
      rotation matrix:
      nu1 =    1.00000000       0.00000000       0.00000000
      nu2 =    0.00000000       1.00000000       0.00000000
      nu3 =    0.00000000       0.00000000       1.00000000
      x:    147.94999999999999
      y:    79.959999999999994
      depth:    0.0000000000000000       m
      z:    0.0000000000000000



 station #           41     DB    X41
      original latitude:    79.9800034
      original longitude:    146.929993
      original x:    146.929993
      original y:    79.9800034
      original depth:    0.00000000      m
      horizontal distance:    6.89383522E-02
      target x, y, z:    146.929993       79.9800034       0.00000000
      closest estimate found:    0.00000000      m away

      receiver located in slice            1
                       in element         1237
                       in elastic domain
      at coordinates:
      xi    =  -0.75583333333333302
      eta   =  -0.33499999999999974
      gamma =    1.0000000000000000
      rotation matrix:
      nu1 =    1.00000000       0.00000000       0.00000000
      nu2 =    0.00000000       1.00000000       0.00000000
      nu3 =    0.00000000       0.00000000       1.00000000
      x:    146.93000000000001
      y:    79.980000000000004
      depth:    0.0000000000000000       m
      z:    0.0000000000000000



 station #           42     DB    X42
      original latitude:    80.0100021
      original longitude:    145.910004
      original x:    145.910004
      original y:    80.0100021
      original depth:    0.00000000      m
      horizontal distance:    6.79268464E-02
      target x, y, z:    145.910004       80.0100021       0.00000000
      closest estimate found:    0.00000000      m away

      receiver located in slice            1
                       in element         1237
                       in elastic domain
      at coordinates:
      xi    =  -0.84083333333333354
      eta   =  -0.33249999999999963
      gamma =    1.0000000000000000
      rotation matrix:
      nu1 =    1.00000000       0.00000000       0.00000000
      nu2 =    0.00000000       1.00000000       0.00000000
      nu3 =    0.00000000       0.00000000       1.00000000
      x:    145.91000000000000
      y:    80.010000000000005
      depth:    0.0000000000000000       m
      z:    0.0000000000000000



 station #           43     DB    X43
      original latitude:    80.0199966
      original longitude:    144.889999
      original x:    144.889999
      original y:    80.0199966
      original depth:    0.00000000      m
      horizontal distance:    6.69134930E-02
      target x, y, z:    144.889999       80.0199966       0.00000000
      closest estimate found:    0.00000000      m away

      receiver located in slice            1
                       in element         1237
                       in elastic domain
      at coordinates:
      xi    =  -0.92583333333333440
      eta   =  -0.33166666666666705
      gamma =    1.0000000000000000
      rotation matrix:
      nu1 =    1.00000000       0.00000000       0.00000000
      nu2 =    0.00000000       1.00000000       0.00000000
      nu3 =    0.00000000       0.00000000       1.00000000
      x:    144.88999999999999
      y:    80.019999999999996
      depth:    0.0000000000000000       m
      z:    0.0000000000000000



 station #           44     DB    X44
      original latitude:    79.9599991
      original longitude:    143.929993
      original x:    143.929993
      original y:    79.9599991
      original depth:    0.00000000      m
      horizontal distance:    6.59525320E-02
      target x, y, z:    143.929993       79.9599991       0.00000000
      closest estimate found:    0.00000000      m away

      receiver located in slice            0
                       in element         1248
                       in elastic domain
      at coordinates:
      xi    =   0.99416666666666720
      eta   =  -0.33666666666666600
      gamma =    1.0000000000000000
      rotation matrix:
      nu1 =    1.00000000       0.00000000       0.00000000
      nu2 =    0.00000000       1.00000000       0.00000000
      nu3 =    0.00000000       0.00000000       1.00000000
      x:    143.93000000000001
      y:    79.959999999999994
      depth:    0.0000000000000000       m
      z:    0.0000000000000000



 station #           45     DB    X45
      original latitude:    79.9800034
      original longitude:    142.919998
      original x:    142.919998
      original y:    79.9800034
      original depth:    0.00000000      m
      horizontal distance:    6.49504811E-02
      target x, y, z:    142.919998       79.9800034       0.00000000
      closest estimate found:    0.00000000      m away

      receiver located in slice            0
                       in element         1248
                       in elastic domain
      at coordinates:
      xi    =   0.90999999999999892
      eta   =  -0.33499999999999969
      gamma =    1.0000000000000000
      rotation matrix:
      nu1 =    1.00000000       0.00000000       0.00000000
      nu2 =    0.00000000       1.00000000       0.00000000
      nu3 =    0.00000000       0.00000000       1.00000000
      x:    142.91999999999999
      y:    79.980000000000004
      depth:    0.0000000000000000       m
      z:    0.0000000000000000



 station #           46     DB    X46
      original latitude:    80.0100021
      original longitude:    141.899994
      original x:    141.899994
      original y:    80.0100021
      original depth:    0.00000000      m
      horizontal distance:    6.39398545E-02
      target x, y, z:    141.899994       80.0100021       0.00000000
      closest estimate found:    5.68434189E-14  m away

      receiver located in slice            0
                       in element         1248
                       in elastic domain
      at coordinates:
      xi    =   0.82500000000000273
      eta   =  -0.33249999999999963
      gamma =    1.0000000000000000
      rotation matrix:
      nu1 =    1.00000000       0.00000000       0.00000000
      nu2 =    0.00000000       1.00000000       0.00000000
      nu3 =    0.00000000       0.00000000       1.00000000
      x:    141.90000000000006
      y:    80.010000000000005
      depth:    0.0000000000000000       m
      z:    0.0000000000000000



 station #           47     DB    X47
      original latitude:    80.0299988
      original longitude:    140.880005
      original x:    140.880005
      original y:    80.0299988
      original depth:    0.00000000      m
      horizontal distance:    6.29284158E-02
      target x, y, z:    140.880005       80.0299988       0.00000000
      closest estimate found:    2.84217094E-14  m away

      receiver located in slice            0
                       in element         1248
                       in elastic domain
      at coordinates:
      xi    =   0.74000000000000188
      eta   =  -0.33083333333333331
      gamma =    1.0000000000000000
      rotation matrix:
      nu1 =    1.00000000       0.00000000       0.00000000
      nu2 =    0.00000000       1.00000000       0.00000000
      nu3 =    0.00000000       0.00000000       1.00000000
      x:    140.88000000000002
      y:    80.030000000000001
      depth:    0.0000000000000000       m
      z:    0.0000000000000000



 station #           48     DB    X48
      original latitude:    79.9700012
      original longitude:    139.929993
      original x:    139.929993
      original y:    79.9700012
      original depth:    0.00000000      m
      horizontal distance:    6.19777106E-02
      target x, y, z:    139.929993       79.9700012       0.00000000
      closest estimate found:    3.17764376E-14  m away

      receiver located in slice            0
                       in element         1248
                       in elastic domain
      at coordinates:
      xi    =   0.66083333333333616
      eta   =  -0.33583333333333348
      gamma =    1.0000000000000000
      rotation matrix:
      nu1 =    1.00000000       0.00000000       0.00000000
      nu2 =    0.00000000       1.00000000       0.00000000
      nu3 =    0.00000000       0.00000000       1.00000000
      x:    139.93000000000004
      y:    79.970000000000013
      depth:    0.0000000000000000       m
      z:    0.0000000000000000



 station #           49     DB    X49
      original latitude:    79.9899979
      original longitude:    138.910004
      original x:    138.910004
      original y:    79.9899979
      original depth:    0.00000000      m
      horizontal distance:    6.09666668E-02
      target x, y, z:    138.910004       79.9899979       0.00000000
      closest estimate found:    5.85928536E-14  m away

      receiver located in slice            0
                       in element         1248
                       in elastic domain
      at coordinates:
      xi    =   0.57583333333333064
      eta   =  -0.33416666666666717
      gamma =    1.0000000000000000
      rotation matrix:
      nu1 =    1.00000000       0.00000000       0.00000000
      nu2 =    0.00000000       1.00000000       0.00000000
      nu3 =    0.00000000       0.00000000       1.00000000
      x:    138.90999999999994
      y:    79.989999999999981
      depth:    0.0000000000000000       m
      z:    0.0000000000000000



 station #           50     DB    X50
      original latitude:    80.0100021
      original longitude:    137.889999
      original x:    137.889999
      original y:    80.0100021
      original depth:    0.00000000      m
      horizontal distance:    5.99559359E-02
      target x, y, z:    137.889999       80.0100021       0.00000000
      closest estimate found:    0.00000000      m away

      receiver located in slice            0
                       in element         1248
                       in elastic domain
      at coordinates:
      xi    =   0.49083333333333207
      eta   =  -0.33249999999999846
      gamma =    1.0000000000000000
      rotation matrix:
      nu1 =    1.00000000       0.00000000       0.00000000
      nu2 =    0.00000000       1.00000000       0.00000000
      nu3 =    0.00000000       0.00000000       1.00000000
      x:    137.88999999999999
      y:    80.010000000000005
      depth:    0.0000000000000000       m
      z:    0.0000000000000000



 station #           51     DB    X51
      original latitude:    79.9499969
      original longitude:    136.929993
      original x:    136.929993
      original y:    79.9499969
      original depth:    0.00000000      m
      horizontal distance:    5.89955635E-02
      target x, y, z:    136.929993       79.9499969       0.00000000
      closest estimate found:    4.01943663E-14  m away

      receiver located in slice            0
                       in element         1248
                       in elastic domain
      at coordinates:
      xi    =   0.41083333333333139
      eta   =  -0.33750000000000097
      gamma =    1.0000000000000000
      rotation matrix:
      nu1 =    1.00000000       0.00000000       0.00000000
      nu2 =    0.00000000       1.00000000       0.00000000
      nu3 =    0.00000000       0.00000000       1.00000000
      x:    136.92999999999998
      y:    79.949999999999974
      depth:    0.0000000000000000       m
      z:    0.0000000000000000



 station #           52     DB    X52
      original latitude:    79.9700012
      original longitude:    135.919998
      original x:    135.919998
      original y:    79.9700012
      original depth:    0.00000000      m
      horizontal distance:    5.79952151E-02
      target x, y, z:    135.919998       79.9700012       0.00000000
      closest estimate found:    2.84217094E-14  m away

      receiver located in slice            0
                       in element         1248
                       in elastic domain
      at coordinates:
      xi    =   0.32666666666666322
      eta   =  -0.33583333333333343
      gamma =    1.0000000000000000
      rotation matrix:
      nu1 =    1.00000000       0.00000000       0.00000000
      nu2 =    0.00000000       1.00000000       0.00000000
      nu3 =    0.00000000       0.00000000       1.00000000
      x:    135.91999999999996
      y:    79.969999999999999
      depth:    0.0000000000000000       m
      z:    0.0000000000000000



 station #           53     DB    X53
      original latitude:    80.0000000
      original longitude:    134.899994
      original x:    134.899994
      original y:    80.0000000
      original depth:    0.00000000      m
      horizontal distance:    5.69865257E-02
      target x, y, z:    134.899994       80.0000000       0.00000000
      closest estimate found:    0.00000000      m away

      receiver located in slice            0
                       in element         1248
                       in elastic domain
      at coordinates:
      xi    =   0.24166666666666714
      eta   =  -0.33333333333333331
      gamma =    1.0000000000000000
      rotation matrix:
      nu1 =    1.00000000       0.00000000       0.00000000
      nu2 =    0.00000000       1.00000000       0.00000000
      nu3 =    0.00000000       0.00000000       1.00000000
      x:    134.90000000000001
      y:    80.000000000000000
      depth:    0.0000000000000000       m
      z:    0.0000000000000000



 station #           54     DB    X54
      original latitude:    80.0199966
      original longitude:    133.889999
      original x:    133.889999
      original y:    80.0199966
      original depth:    0.00000000      m
      horizontal distance:    5.59869185E-02
      target x, y, z:    133.889999       80.0199966       0.00000000
      closest estimate found:    0.00000000      m away

      receiver located in slice            0
                       in element         1248
                       in elastic domain
      at coordinates:
      xi    =   0.15749999999999886
      eta   =  -0.33166666666666700
      gamma =    1.0000000000000000
      rotation matrix:
      nu1 =    1.00000000       0.00000000       0.00000000
      nu2 =    0.00000000       1.00000000       0.00000000
      nu3 =    0.00000000       0.00000000       1.00000000
      x:    133.88999999999999
      y:    80.019999999999996
      depth:    0.0000000000000000       m
      z:    0.0000000000000000



 station #           55     DB    X55
      original latitude:    79.9599991
      original longitude:    132.929993
      original x:    132.929993
      original y:    79.9599991
      original depth:    0.00000000      m
      horizontal distance:    5.50270528E-02
      target x, y, z:    132.929993       79.9599991       0.00000000
      closest estimate found:    1.42108547E-14  m away

      receiver located in slice            0
                       in element         1248
                       in elastic domain
      at coordinates:
      xi    =    7.7500000000000568E-002
      eta   =  -0.33666666666666833
      gamma =    1.0000000000000000
      rotation matrix:
      nu1 =    1.00000000       0.00000000       0.00000000
      nu2 =    0.00000000       1.00000000       0.00000000
      nu3 =    0.00000000       0.00000000       1.00000000
      x:    132.93000000000001
      y:    79.959999999999980
      depth:    0.0000000000000000       m
      z:    0.0000000000000000



 station #           56     DB    X56
      original latitude:    79.9800034
      original longitude:    131.910004
      original x:    131.910004
      original y:    79.9800034
      original depth:    0.00000000      m
      horizontal distance:    5.40180914E-02
      target x, y, z:    131.910004       79.9800034       0.00000000
      closest estimate found:    3.17764376E-14  m away

      receiver located in slice            0
                       in element         1248
                       in elastic domain
      at coordinates:
      xi    =   -7.5000000000002842E-003
      eta   =  -0.33499999999999852
      gamma =    1.0000000000000000
      rotation matrix:
      nu1 =    1.00000000       0.00000000       0.00000000
      nu2 =    0.00000000       1.00000000       0.00000000
      nu3 =    0.00000000       0.00000000       1.00000000
      x:    131.91000000000003
      y:    79.980000000000018
      depth:    0.0000000000000000       m
      z:    0.0000000000000000



 station #           57     DB    X57
      original latitude:    80.0000000
      original longitude:    130.899994
      original x:    130.899994
      original y:    80.0000000
      original depth:    0.00000000      m
      horizontal distance:    5.30194677E-02
      target x, y, z:    130.899994       80.0000000       0.00000000
      closest estimate found:    0.00000000      m away

      receiver located in slice            0
                       in element         1248
                       in elastic domain
      at coordinates:
      xi    =   -9.1666666666666188E-002
      eta   =  -0.33333333333333331
      gamma =    1.0000000000000000
      rotation matrix:
      nu1 =    1.00000000       0.00000000       0.00000000
      nu2 =    0.00000000       1.00000000       0.00000000
      nu3 =    0.00000000       0.00000000       1.00000000
      x:    130.90000000000001
      y:    80.000000000000000
      depth:    0.0000000000000000       m
      z:    0.0000000000000000



 station #           58     DB    X58
      original latitude:    79.9400024
      original longitude:    129.940002
      original x:    129.940002
      original y:    79.9400024
      original depth:    0.00000000      m
      horizontal distance:    5.20600453E-02
      target x, y, z:    129.940002       79.9400024       0.00000000
      closest estimate found:    0.00000000      m away

      receiver located in slice            0
                       in element         1248
                       in elastic domain
      at coordinates:
      xi    =  -0.17166666666666686
      eta   =  -0.33833333333333354
      gamma =    1.0000000000000000
      rotation matrix:
      nu1 =    1.00000000       0.00000000       0.00000000
      nu2 =    0.00000000       1.00000000       0.00000000
      nu3 =    0.00000000       0.00000000       1.00000000
      x:    129.94000000000000
      y:    79.939999999999998
      depth:    0.0000000000000000       m
      z:    0.0000000000000000



 station #           59     DB    X59
      original latitude:    79.9599991
      original longitude:    128.919998
      original x:    128.919998
      original y:    79.9599991
      original depth:    0.00000000      m
      horizontal distance:    5.10521792E-02
      target x, y, z:    128.919998       79.9599991       0.00000000
      closest estimate found:    0.00000000      m away

      receiver located in slice            0
                       in element         1248
                       in elastic domain
      at coordinates:
      xi    =  -0.25666666666666771
      eta   =  -0.33666666666666717
      gamma =    1.0000000000000000
      rotation matrix:
      nu1 =    1.00000000       0.00000000       0.00000000
      nu2 =    0.00000000       1.00000000       0.00000000
      nu3 =    0.00000000       0.00000000       1.00000000
      x:    128.91999999999999
      y:    79.959999999999994
      depth:    0.0000000000000000       m
      z:    0.0000000000000000



 station #           60     DB    X60
      original latitude:    79.9899979
      original longitude:    127.910004
      original x:    127.910004
      original y:    79.9899979
      original depth:    0.00000000      m
      horizontal distance:    5.00561148E-02
      target x, y, z:    127.910004       79.9899979       0.00000000
      closest estimate found:    0.00000000      m away

      receiver located in slice            0
                       in element         1248
                       in elastic domain
      at coordinates:
      xi    =  -0.34083333333333493
      eta   =  -0.33416666666666717
      gamma =    1.0000000000000000
      rotation matrix:
      nu1 =    1.00000000       0.00000000       0.00000000
      nu2 =    0.00000000       1.00000000       0.00000000
      nu3 =    0.00000000       0.00000000       1.00000000
      x:    127.91000000000000
      y:    79.989999999999995
      depth:    0.0000000000000000       m
      z:    0.0000000000000000



 station #           61     DB    X61
      original latitude:    80.0100021
      original longitude:    126.889999
      original x:    126.889999
      original y:    80.0100021
      original depth:    0.00000000      m
      horizontal distance:    4.90493029E-02
      target x, y, z:    126.889999       80.0100021       0.00000000
      closest estimate found:    0.00000000      m away

      receiver located in slice            0
                       in element         1248
                       in elastic domain
      at coordinates:
      xi    =  -0.42583333333333340
      eta   =  -0.33249999999999963
      gamma =    1.0000000000000000
      rotation matrix:
      nu1 =    1.00000000       0.00000000       0.00000000
      nu2 =    0.00000000       1.00000000       0.00000000
      nu3 =    0.00000000       0.00000000       1.00000000
      x:    126.89000000000000
      y:    80.010000000000005
      depth:    0.0000000000000000       m
      z:    0.0000000000000000



 station #           62     DB    X62
      original latitude:    79.9499969
      original longitude:    125.930000
      original x:    125.930000
      original y:    79.9499969
      original depth:    0.00000000      m
      horizontal distance:    4.80907112E-02
      target x, y, z:    125.930000       79.9499969       0.00000000
      closest estimate found:    0.00000000      m away

      receiver located in slice            0
                       in element         1248
                       in elastic domain
      at coordinates:
      xi    =  -0.50583333333333402
      eta   =  -0.33749999999999980
      gamma =    1.0000000000000000
      rotation matrix:
      nu1 =    1.00000000       0.00000000       0.00000000
      nu2 =    0.00000000       1.00000000       0.00000000
      nu3 =    0.00000000       0.00000000       1.00000000
      x:    125.93000000000001
      y:    79.950000000000003
      depth:    0.0000000000000000       m
      z:    0.0000000000000000



 station #           63     DB    X63
      original latitude:    79.9700012
      original longitude:    124.919998
      original x:    124.919998
      original y:    79.9700012
      original depth:    0.00000000      m
      horizontal distance:    4.70946394E-02
      target x, y, z:    124.919998       79.9700012       0.00000000
      closest estimate found:    0.00000000      m away

      receiver located in slice            0
                       in element         1248
                       in elastic domain
      at coordinates:
      xi    =  -0.59000000000000108
      eta   =  -0.33583333333333348
      gamma =    1.0000000000000000
      rotation matrix:
      nu1 =    1.00000000       0.00000000       0.00000000
      nu2 =    0.00000000       1.00000000       0.00000000
      nu3 =    0.00000000       0.00000000       1.00000000
      x:    124.92000000000000
      y:    79.969999999999999
      depth:    0.0000000000000000       m
      z:    0.0000000000000000



 station #           64     DB    X64
      original latitude:    79.9899979
      original longitude:    123.900002
      original x:    123.900002
      original y:    79.9899979
      original depth:    0.00000000      m
      horizontal distance:    4.60892990E-02
      target x, y, z:    123.900002       79.9899979       0.00000000
      closest estimate found:    1.42108547E-14  m away

      receiver located in slice            0
                       in element         1248
                       in elastic domain
      at coordinates:
      xi    =  -0.67500000000000071
      eta   =  -0.33416666666666833
      gamma =    1.0000000000000000
      rotation matrix:
      nu1 =    1.00000000       0.00000000       0.00000000
      nu2 =    0.00000000       1.00000000       0.00000000
      nu3 =    0.00000000       0.00000000       1.00000000
      x:    123.90000000000001
      y:    79.989999999999981
      depth:    0.0000000000000000       m
      z:    0.0000000000000000



 station #           65     DB    X65
      original latitude:    79.9300003
      original longitude:    122.940002
      original x:    122.940002
      original y:    79.9300003
      original depth:    0.00000000      m
      horizontal distance:    4.51314636E-02
      target x, y, z:    122.940002       79.9300003       0.00000000
      closest estimate found:    0.00000000      m away

      receiver located in slice            0
                       in element         1248
                       in elastic domain
      at coordinates:
      xi    =  -0.75499999999999912
      eta   =  -0.33916666666666617
      gamma =    1.0000000000000000
      rotation matrix:
      nu1 =    1.00000000       0.00000000       0.00000000
      nu2 =    0.00000000       1.00000000       0.00000000
      nu3 =    0.00000000       0.00000000       1.00000000
      x:    122.94000000000000
      y:    79.930000000000007
      depth:    0.0000000000000000       m
      z:    0.0000000000000000



 station #           66     DB    X66
      original latitude:    79.9499969
      original longitude:    121.930000
      original x:    121.930000
      original y:    79.9499969
      original depth:    0.00000000      m
      horizontal distance:    4.41370197E-02
      target x, y, z:    121.930000       79.9499969       0.00000000
      closest estimate found:    0.00000000      m away

      receiver located in slice            0
                       in element         1248
                       in elastic domain
      at coordinates:
      xi    =  -0.83916666666666606
      eta   =  -0.33749999999999974
      gamma =    1.0000000000000000
      rotation matrix:
      nu1 =    1.00000000       0.00000000       0.00000000
      nu2 =    0.00000000       1.00000000       0.00000000
      nu3 =    0.00000000       0.00000000       1.00000000
      x:    121.93000000000001
      y:    79.950000000000003
      depth:    0.0000000000000000       m
      z:    0.0000000000000000



 station #           67     DB    X67
      original latitude:    79.9800034
      original longitude:    120.910004
      original x:    120.910004
      original y:    79.9800034
      original depth:    0.00000000      m
      horizontal distance:    4.31350656E-02
      target x, y, z:    120.910004       79.9800034       0.00000000
      closest estimate found:    0.00000000      m away

      receiver located in slice            0
                       in element         1248
                       in elastic domain
      at coordinates:
      xi    =  -0.92416666666666814
      eta   =  -0.33499999999999969
      gamma =    1.0000000000000000
      rotation matrix:
      nu1 =    1.00000000       0.00000000       0.00000000
      nu2 =    0.00000000       1.00000000       0.00000000
      nu3 =    0.00000000       0.00000000       1.00000000
      x:    120.91000000000000
      y:    79.980000000000004
      depth:    0.0000000000000000       m
      z:    0.0000000000000000



 station #           68     DB    X68
      original latitude:    80.0000000
      original longitude:    119.889999
      original x:    119.889999
      original y:    80.0000000
      original depth:    0.00000000      m
      horizontal distance:    4.21323292E-02
      target x, y, z:    119.889999       80.0000000       0.00000000
      closest estimate found:    2.00971831E-14  m away

      receiver located in slice            0
                       in element         1247
                       in elastic domain
      at coordinates:
      xi    =   0.99083333333333345
      eta   =  -0.33333333333333448
      gamma =    1.0000000000000000
      rotation matrix:
      nu1 =    1.00000000       0.00000000       0.00000000
      nu2 =    0.00000000       1.00000000       0.00000000
      nu3 =    0.00000000       0.00000000       1.00000000
      x:    119.89000000000001
      y:    79.999999999999986
      depth:    0.0000000000000000       m
      z:    0.0000000000000000



 station #           69     DB    X69
      original latitude:    79.9400024
      original longitude:    118.940002
      original x:    118.940002
      original y:    79.9400024
      original depth:    0.00000000      m
      horizontal distance:    4.11857814E-02
      target x, y, z:    118.940002       79.9400024       0.00000000
      closest estimate found:    1.42108547E-14  m away

      receiver located in slice            0
                       in element         1247
                       in elastic domain
      at coordinates:
      xi    =   0.91166666666666651
      eta   =  -0.33833333333333354
      gamma =    1.0000000000000000
      rotation matrix:
      nu1 =    1.00000000       0.00000000       0.00000000
      nu2 =    0.00000000       1.00000000       0.00000000
      nu3 =    0.00000000       0.00000000       1.00000000
      x:    118.94000000000001
      y:    79.939999999999998
      depth:    0.0000000000000000       m
      z:    0.0000000000000000



 station #           70     DB    X70
      original latitude:    79.9599991
      original longitude:    117.919998
      original x:    117.919998
      original y:    79.9599991
      original depth:    0.00000000      m
      horizontal distance:    4.01843861E-02
      target x, y, z:    117.919998       79.9599991       0.00000000
      closest estimate found:    0.00000000      m away

      receiver located in slice            0
                       in element         1247
                       in elastic domain
      at coordinates:
      xi    =   0.82666666666666533
      eta   =  -0.33666666666666728
      gamma =    1.0000000000000000
      rotation matrix:
      nu1 =    1.00000000       0.00000000       0.00000000
      nu2 =    0.00000000       1.00000000       0.00000000
      nu3 =    0.00000000       0.00000000       1.00000000
      x:    117.92000000000000
      y:    79.959999999999994
      depth:    0.0000000000000000       m
      z:    0.0000000000000000



 station #           71     DB    X71
      original latitude:    79.9800034
      original longitude:    116.900002
      original x:    116.900002
      original y:    79.9800034
      original depth:    0.00000000      m
      horizontal distance:    3.91839631E-02
      target x, y, z:    116.900002       79.9800034       0.00000000
      closest estimate found:    4.01943663E-14  m away

      receiver located in slice            0
                       in element         1247
                       in elastic domain
      at coordinates:
      xi    =   0.74166666666666581
      eta   =  -0.33500000000000096
      gamma =    1.0000000000000000
      rotation matrix:
      nu1 =    1.00000000       0.00000000       0.00000000
      nu2 =    0.00000000       1.00000000       0.00000000
      nu3 =    0.00000000       0.00000000       1.00000000
      x:    116.89999999999998
      y:    79.979999999999976
      depth:    0.0000000000000000       m
      z:    0.0000000000000000



 station #           72     DB    X72
      original latitude:    80.0000000
      original longitude:    115.889999
      original x:    115.889999
      original y:    80.0000000
      original depth:    0.00000000      m
      horizontal distance:    3.81944142E-02
      target x, y, z:    115.889999       80.0000000       0.00000000
      closest estimate found:    2.00971831E-14  m away

      receiver located in slice            0
                       in element         1247
                       in elastic domain
      at coordinates:
      xi    =   0.65749999999999997
      eta   =  -0.33333333333333343
      gamma =    1.0000000000000000
      rotation matrix:
      nu1 =    1.00000000       0.00000000       0.00000000
      nu2 =    0.00000000       1.00000000       0.00000000
      nu3 =    0.00000000       0.00000000       1.00000000
      x:    115.89000000000001
      y:    80.000000000000014
      depth:    0.0000000000000000       m
      z:    0.0000000000000000



 station #           73     DB    X73
      original latitude:    78.0400009
      original longitude:    186.910004
      original x:    186.910004
      original y:    78.0400009
      original depth:    0.00000000      m
      horizontal distance:   0.108678795
      target x, y, z:    186.910004       78.0400009       0.00000000
      closest estimate found:    0.00000000      m away

      receiver located in slice            1
                       in element         1238
                       in elastic domain
      at coordinates:
      xi    =   0.57583333333333298
      eta   =  -0.49666666666666620
      gamma =    1.0000000000000000
      rotation matrix:
      nu1 =    1.00000000       0.00000000       0.00000000
      nu2 =    0.00000000       1.00000000       0.00000000
      nu3 =    0.00000000       0.00000000       1.00000000
      x:    186.91000000000000
      y:    78.040000000000006
      depth:    0.0000000000000000       m
      z:    0.0000000000000000



 station #           74     DB    X74
      original latitude:    78.0599976
      original longitude:    185.899994
      original x:    185.899994
      original y:    78.0599976
      original depth:    0.00000000      m
      horizontal distance:   0.107670851
      target x, y, z:    185.899994       78.0599976       0.00000000
      closest estimate found:    0.00000000      m away

      receiver located in slice            1
                       in element         1238
                       in elastic domain
      at coordinates:
      xi    =   0.49166666666666703
      eta   =  -0.49499999999999988
[...]
      nu3 =    0.00000000       0.00000000       1.00000000
      x:    127.94000000000000
      y:    61.950000000000003
      depth:    0.0000000000000000       m
      z:    0.0000000000000000



 station #          709     DB    X709
      original latitude:    61.9799995
      original longitude:    126.930000
      original x:    126.930000
      original y:    61.9799995
      original depth:    0.00000000      m
      horizontal distance:    4.98053879E-02
      target x, y, z:    126.930000       61.9799995       0.00000000
      closest estimate found:    0.00000000      m away

      receiver located in slice            0
                       in element         1242
                       in elastic domain
      at coordinates:
      xi    =  -0.42249999999999949
      eta   =   0.16499999999999967
      gamma =    1.0000000000000000
      rotation matrix:
      nu1 =    1.00000000       0.00000000       0.00000000
      nu2 =    0.00000000       1.00000000       0.00000000
      nu3 =    0.00000000       0.00000000       1.00000000
      x:    126.93000000000001
      y:    61.979999999999997
      depth:    0.0000000000000000       m
      z:    0.0000000000000000



 station #          710     DB    X710
      original latitude:    62.0000000
      original longitude:    125.910004
      original x:    125.910004
      original y:    62.0000000
      original depth:    0.00000000      m
      horizontal distance:    4.88065071E-02
      target x, y, z:    125.910004       62.0000000       0.00000000
      closest estimate found:    1.42108547E-14  m away

      receiver located in slice            0
                       in element         1242
                       in elastic domain
      at coordinates:
      xi    =  -0.50750000000000028
      eta   =   0.16666666666666718
      gamma =    1.0000000000000000
      rotation matrix:
      nu1 =    1.00000000       0.00000000       0.00000000
      nu2 =    0.00000000       1.00000000       0.00000000
      nu3 =    0.00000000       0.00000000       1.00000000
      x:    125.90999999999998
      y:    62.000000000000000
      depth:    0.0000000000000000       m
      z:    0.0000000000000000



 station #          711     DB    X711
      original latitude:    61.9399986
      original longitude:    124.949997
      original x:    124.949997
      original y:    61.9399986
      original depth:    0.00000000      m
      horizontal distance:    4.78852838E-02
      target x, y, z:    124.949997       61.9399986       0.00000000
      closest estimate found:    1.42108547E-14  m away

      receiver located in slice            0
                       in element         1242
                       in elastic domain
      at coordinates:
      xi    =  -0.58749999999999858
      eta   =   0.16166666666666640
      gamma =    1.0000000000000000
      rotation matrix:
      nu1 =    1.00000000       0.00000000       0.00000000
      nu2 =    0.00000000       1.00000000       0.00000000
      nu3 =    0.00000000       0.00000000       1.00000000
      x:    124.95000000000002
      y:    61.939999999999998
      depth:    0.0000000000000000       m
      z:    0.0000000000000000



 station #          712     DB    X712
      original latitude:    61.9599991
      original longitude:    123.940002
      original x:    123.940002
      original y:    61.9599991
      original depth:    0.00000000      m
      horizontal distance:    4.68982756E-02
      target x, y, z:    123.940002       61.9599991       0.00000000
      closest estimate found:    7.10542736E-15  m away

      receiver located in slice            0
                       in element         1242
                       in elastic domain
      at coordinates:
      xi    =  -0.67166666666666686
      eta   =   0.16333333333333391
      gamma =    1.0000000000000000
      rotation matrix:
      nu1 =    1.00000000       0.00000000       0.00000000
      nu2 =    0.00000000       1.00000000       0.00000000
      nu3 =    0.00000000       0.00000000       1.00000000
      x:    123.94000000000000
      y:    61.960000000000008
      depth:    0.0000000000000000       m
      z:    0.0000000000000000



 station #          713     DB    X713
      original latitude:    61.9799995
      original longitude:    122.919998
      original x:    122.919998
      original y:    61.9799995
      original depth:    0.00000000      m
      horizontal distance:    4.59025614E-02
      target x, y, z:    122.919998       61.9799995       0.00000000
      closest estimate found:    2.00971831E-14  m away

      receiver located in slice            0
                       in element         1242
                       in elastic domain
      at coordinates:
      xi    =  -0.75666666666666538
      eta   =   0.16500000000000026
      gamma =    1.0000000000000000
      rotation matrix:
      nu1 =    1.00000000       0.00000000       0.00000000
      nu2 =    0.00000000       1.00000000       0.00000000
      nu3 =    0.00000000       0.00000000       1.00000000
      x:    122.92000000000002
      y:    61.980000000000011
      depth:    0.0000000000000000       m
      z:    0.0000000000000000



 station #          714     DB    X714
      original latitude:    62.0000000
      original longitude:    121.910004
      original x:    121.910004
      original y:    62.0000000
      original depth:    0.00000000      m
      horizontal distance:    4.49176505E-02
      target x, y, z:    121.910004       62.0000000       0.00000000
      closest estimate found:    0.00000000      m away

      receiver located in slice            0
                       in element         1242
                       in elastic domain
      at coordinates:
      xi    =  -0.84083333333333365
      eta   =   0.16666666666666666
      gamma =    1.0000000000000000
      rotation matrix:
      nu1 =    1.00000000       0.00000000       0.00000000
      nu2 =    0.00000000       1.00000000       0.00000000
      nu3 =    0.00000000       0.00000000       1.00000000
      x:    121.91000000000000
      y:    62.000000000000000
      depth:    0.0000000000000000       m
      z:    0.0000000000000000



 station #          715     DB    X715
      original latitude:    61.9399986
      original longitude:    120.949997
      original x:    120.949997
      original y:    61.9399986
      original depth:    0.00000000      m
      horizontal distance:    4.40022759E-02
      target x, y, z:    120.949997       61.9399986       0.00000000
      closest estimate found:    1.42108547E-14  m away

      receiver located in slice            0
                       in element         1242
                       in elastic domain
      at coordinates:
      xi    =  -0.92083333333333184
      eta   =   0.16166666666666646
      gamma =    1.0000000000000000
      rotation matrix:
      nu1 =    1.00000000       0.00000000       0.00000000
      nu2 =    0.00000000       1.00000000       0.00000000
      nu3 =    0.00000000       0.00000000       1.00000000
      x:    120.95000000000002
      y:    61.939999999999998
      depth:    0.0000000000000000       m
      z:    0.0000000000000000



 station #          716     DB    X716
      original latitude:    61.9700012
      original longitude:    119.930000
      original x:    119.930000
      original y:    61.9700012
      original depth:    0.00000000      m
      horizontal distance:    4.30078655E-02
      target x, y, z:    119.930000       61.9700012       0.00000000
      closest estimate found:    1.58882188E-14  m away

      receiver located in slice            0
                       in element         1241
                       in elastic domain
      at coordinates:
      xi    =   0.99416666666666842
      eta   =   0.16416666666666715
      gamma =    1.0000000000000000
      rotation matrix:
      nu1 =    1.00000000       0.00000000       0.00000000
      nu2 =    0.00000000       1.00000000       0.00000000
      nu3 =    0.00000000       0.00000000       1.00000000
      x:    119.93000000000002
      y:    61.970000000000006
      depth:    0.0000000000000000       m
      z:    0.0000000000000000



 station #          717     DB    X717
      original latitude:    61.9900017
      original longitude:    118.919998
      original x:    118.919998
      original y:    61.9900017
      original depth:    0.00000000      m
      horizontal distance:    4.20269668E-02
      target x, y, z:    118.919998       61.9900017       0.00000000
      closest estimate found:    1.58882188E-14  m away

      receiver located in slice            0
                       in element         1241
                       in elastic domain
      at coordinates:
      xi    =   0.91000000000000014
      eta   =   0.16583333333333292
      gamma =    1.0000000000000000
      rotation matrix:
      nu1 =    1.00000000       0.00000000       0.00000000
      nu2 =    0.00000000       1.00000000       0.00000000
      nu3 =    0.00000000       0.00000000       1.00000000
      x:    118.91999999999999
      y:    61.989999999999995
      depth:    0.0000000000000000       m
      z:    0.0000000000000000



 station #          718     DB    X718
      original latitude:    61.9300003
      original longitude:    117.959999
      original x:    117.959999
      original y:    61.9300003
      original depth:    0.00000000      m
      horizontal distance:    4.11170647E-02
      target x, y, z:    117.959999       61.9300003       0.00000000
      closest estimate found:    3.17764376E-14  m away

      receiver located in slice            0
                       in element         1241
                       in elastic domain
      at coordinates:
      xi    =   0.82999999999999829
      eta   =   0.16083333333333272
      gamma =    1.0000000000000000
      rotation matrix:
      nu1 =    1.00000000       0.00000000       0.00000000
      nu2 =    0.00000000       1.00000000       0.00000000
      nu3 =    0.00000000       0.00000000       1.00000000
      x:    117.95999999999997
      y:    61.929999999999986
      depth:    0.0000000000000000       m
      z:    0.0000000000000000



 station #          719     DB    X719
      original latitude:    61.9500008
      original longitude:    116.940002
      original x:    116.940002
      original y:    61.9500008
      original depth:    0.00000000      m
      horizontal distance:    4.01298925E-02
      target x, y, z:    116.940002       61.9500008       0.00000000
      closest estimate found:    1.58882188E-14  m away

      receiver located in slice            0
                       in element         1241
                       in elastic domain
      at coordinates:
      xi    =   0.74500000000000088
      eta   =   0.16250000000000078
      gamma =    1.0000000000000000
      rotation matrix:
      nu1 =    1.00000000       0.00000000       0.00000000
      nu2 =    0.00000000       1.00000000       0.00000000
      nu3 =    0.00000000       0.00000000       1.00000000
      x:    116.94000000000001
      y:    61.950000000000010
      depth:    0.0000000000000000       m
      z:    0.0000000000000000



 station #          720     DB    X720
      original latitude:    61.9700012
      original longitude:    115.930000
      original x:    115.930000
      original y:    61.9700012
      original depth:    0.00000000      m
      horizontal distance:    3.91540118E-02
      target x, y, z:    115.930000       61.9700012       0.00000000
      closest estimate found:    1.58882188E-14  m away

      receiver located in slice            0
                       in element         1241
                       in elastic domain
      at coordinates:
      xi    =   0.66083333333333505
      eta   =   0.16416666666666654
      gamma =    1.0000000000000000
      rotation matrix:
      nu1 =    1.00000000       0.00000000       0.00000000
      nu2 =    0.00000000       1.00000000       0.00000000
      nu3 =    0.00000000       0.00000000       1.00000000
      x:    115.93000000000002
      y:    61.969999999999992
      depth:    0.0000000000000000       m
      z:    0.0000000000000000


 maximum error in location of all the receivers:    6.35528753E-14  m

 Elapsed time for receiver detection in seconds =    3.6312000000000011E-002

 End of receiver detection - done

 source arrays:
   number of sources is            1
   size of source array                 =    1.43051147E-03 MB
                                        =    1.39698386E-06 GB

 seismograms:
   seismograms written by all processes
   writing out seismograms at every NTSTEP_BETWEEN_OUTPUT_SEISMOS =         3000
   maximum number of local receivers is          432  in slice            1
   size of maximum seismogram array       =    14.8315430     MB
                                          =    1.44839287E-02 GB


 Total number of samples for seismograms =         3000

 found a total of          720  receivers in all the slices


 Simulation setup:

   no acoustic simulation
 incorporating elastic simulation
   no poroelastic simulation

   no attenuation
   no anisotropy
   no oceans
   no gravity
 incorporating movie simulation


 preparing mass matrices
 preparing constants
 preparing wavefields
   no dynamic faults
   no kinematic faults
 preparing gravity
   no gravity simulation

 preparing Stacey absorbing boundaries
 preparing optimized arrays
   number of regular shaped elements  :            0
   number of irregular shaped elements:         1260
   fused array done
   bandwidth test (STREAM TRIAD):
      memory accesses =    3.02553177     MB
      timing  min/max =    1.38000003E-04 s /    1.72000000E-04 s
      timing      avg =    1.49400003E-04 s
      bandwidth       =    19.7765789     GB/s
      with force_vectorization:
      timing  min/max =    1.18999997E-04 s /    1.36999995E-04 s
      timing      avg =    1.26300001E-04 s
      bandwidth       =    23.3936729     GB/s


 Elapsed time for preparing timerun in seconds =    9.1809999999999947E-003

 ************
  time loop
 ************
               scheme:         Newmark

            time step:    4.99999987E-05  s
 number of time steps:         3000
 total simulated time:   0.150000006      seconds
 start time:  -3.99999991E-02  seconds

 All processes are synchronized before the time loop

 Starting time iteration loop...

 Time step #            5
 Time:   -3.97999994E-02  seconds
 Elapsed time in seconds =    4.4009999999999994E-002
 Elapsed time in hh:mm:ss =      0 h 00 m 00 s
 Mean elapsed time per time step in seconds =    8.80200043E-03
 Max norm displacement vector U in all slices (m) =    3.41456285E-07
 Time steps done =            5  out of         3000
 Time steps remaining =         2995
 Estimated remaining time in seconds =    26.3619900
 Estimated remaining time in hh:mm:ss =      0 h 00 m 26 s
 Estimated total run time in seconds =    26.4060001
 Estimated total run time in hh:mm:ss =      0 h 00 m 26 s
 We have done   0.166666672     % of that
 The run will finish approximately on (in local time): Sun Sep 20, 2020 11:24
 ************************************************************
 **** BEWARE: the above time estimates are not very reliable
 **** because fewer than 100 iterations have been performed
 ************************************************************

 Time step #          500
 Time:   -1.50499996E-02  seconds
 Elapsed time in seconds =    4.5310419999999993
 Elapsed time in hh:mm:ss =      0 h 00 m 04 s
 Mean elapsed time per time step in seconds =    9.06208437E-03
 Max norm displacement vector U in all slices (m) =    7.05990791E-02
 Time steps done =          500  out of         3000
 Time steps remaining =         2500
 Estimated remaining time in seconds =    22.6552105
 Estimated remaining time in hh:mm:ss =      0 h 00 m 22 s
 Estimated total run time in seconds =    27.1862526
 Estimated total run time in hh:mm:ss =      0 h 00 m 27 s
 We have done    16.6666660     % of that
 The run will finish approximately on (in local time): Sun Sep 20, 2020 11:24

 Time step #         1000
 Time:    9.94999986E-03  seconds
 Elapsed time in seconds =    9.0169470000000000
 Elapsed time in hh:mm:ss =      0 h 00 m 09 s
 Mean elapsed time per time step in seconds =    9.01694689E-03
 Max norm displacement vector U in all slices (m) =    3.88984755E-02
 Time steps done =         1000  out of         3000
 Time steps remaining =         2000
 Estimated remaining time in seconds =    18.0338936
 Estimated remaining time in hh:mm:ss =      0 h 00 m 18 s
 Estimated total run time in seconds =    27.0508404
 Estimated total run time in hh:mm:ss =      0 h 00 m 27 s
 We have done    33.3333321     % of that
 The run will finish approximately on (in local time): Sun Sep 20, 2020 11:24

 Time step #         1500
 Time:    3.49499993E-02  seconds
 Elapsed time in seconds =    13.505163000000000
 Elapsed time in hh:mm:ss =      0 h 00 m 13 s
 Mean elapsed time per time step in seconds =    9.00344178E-03
 Max norm displacement vector U in all slices (m) =    1.28098503E-02
 Time steps done =         1500  out of         3000
 Time steps remaining =         1500
 Estimated remaining time in seconds =    13.5051632
 Estimated remaining time in hh:mm:ss =      0 h 00 m 13 s
 Estimated total run time in seconds =    27.0103264
 Estimated total run time in hh:mm:ss =      0 h 00 m 27 s
 We have done    50.0000000     % of that
 The run will finish approximately on (in local time): Sun Sep 20, 2020 11:24

 Time step #         2000
 Time:    5.99500015E-02  seconds
 Elapsed time in seconds =    18.172995000000000
 Elapsed time in hh:mm:ss =      0 h 00 m 18 s
 Mean elapsed time per time step in seconds =    9.08649713E-03
 Max norm displacement vector U in all slices (m) =    1.01121627E-02
 Time steps done =         2000  out of         3000
 Time steps remaining =         1000
 Estimated remaining time in seconds =    9.08649731
 Estimated remaining time in hh:mm:ss =      0 h 00 m 09 s
 Estimated total run time in seconds =    27.2594929
 Estimated total run time in hh:mm:ss =      0 h 00 m 27 s
 We have done    66.6666641     % of that
 The run will finish approximately on (in local time): Sun Sep 20, 2020 11:24

 Time step #         2500
 Time:    8.49500000E-02  seconds
 Elapsed time in seconds =    22.667897000000000
 Elapsed time in hh:mm:ss =      0 h 00 m 22 s
 Mean elapsed time per time step in seconds =    9.06715915E-03
 Max norm displacement vector U in all slices (m) =    1.04624471E-02
 Time steps done =         2500  out of         3000
 Time steps remaining =          500
 Estimated remaining time in seconds =    4.53357935
 Estimated remaining time in hh:mm:ss =      0 h 00 m 04 s
 Estimated total run time in seconds =    27.2014771
 Estimated total run time in hh:mm:ss =      0 h 00 m 27 s
 We have done    83.3333359     % of that
 The run will finish approximately on (in local time): Sun Sep 20, 2020 11:24

 Time step #         3000
 Time:   0.109949999      seconds
 Elapsed time in seconds =    28.343015000000001
 Elapsed time in hh:mm:ss =      0 h 00 m 28 s
 Mean elapsed time per time step in seconds =    9.44767147E-03
 Max norm displacement vector U in all slices (m) =    4.61853854E-03
 Time steps done =         3000  out of         3000
 Time steps remaining =            0
 Estimated remaining time in seconds =    0.00000000
 Estimated remaining time in hh:mm:ss =      0 h 00 m 00 s
 Estimated total run time in seconds =    28.3430157
 Estimated total run time in hh:mm:ss =      0 h 00 m 28 s
 We have done    100.000000     % of that


 Total number of time steps written:         3000
 Writing the seismograms in parallel took    13.8569708      seconds

 Time loop finished. Timing info:
 Total elapsed time in seconds =    42.210706000000002
 Total elapsed time in hh:mm:ss =      0 h 00 m 42 s

 End of the simulation

