
 **********************************************
 **** Specfem 3-D Solver - MPI version f90 ****
 **********************************************

 Version: 3.0.0

 Fixing slow underflow trapping problem using small initial field

 There are            2  MPI processes
 Processes are numbered from 0 to            1

 There is a total of            2  slices

  NDIM =            3

  NGLLX =            5
  NGLLY =            5
  NGLLZ =            5

 using single precision for the calculations

 smallest and largest possible floating-point numbers are:    1.17549435E-38   3.40282347E+38

 velocity model:   tomo

 total acoustic elements    :           0
 total elastic elements     :        2514
 total poroelastic elements :           0

 ********
 minimum and maximum number of elements
 and points in the CUBIT + SCOTCH mesh:

 NSPEC_global_min =         1254
 NSPEC_global_max =         1260
 NSPEC_global_max / NSPEC_global_min imbalance =    1.00478470      =   0.478468895      %
 NSPEC_global_sum =         2514

 NGLOB_global_min =        87825
 NGLOB_global_max =        88125
 NGLOB_global_max / NGLOB_global_min imbalance =    1.00341594      =   0.341588378      %
 NGLOB_global_sum =       175950

 If you have elements of a single type (all acoustic, all elastic, all poroelastic, and without CPML)
 in the whole mesh, then there should be no significant imbalance in the above numbers.
 Otherwise, it is normal to have imbalance in elements and points because the domain decomposer
 compensates for the different cost of different elements by partitioning them unevenly among processes.
 ********


 ********
 Model: P velocity min,max =    2500.00024       2507.00000
 Model: S velocity min,max =    1500.00000       1504.04626

 Model: Poisson's ratio min,max =   0.218750075      0.218839794
 ********

 *********************************************
 *** Verification of simulation parameters ***
 *********************************************

 *** Xmin and Xmax of the model =    0.00000000       288.000000
 *** Ymin and Ymax of the model =    0.00000000       144.000000
 *** Zmin and Zmax of the model =   -70.5000000       0.00000000

 *** Max GLL point distance =    7.85585022
 *** Min GLL point distance =   0.259009361
 *** Max/min ratio =    30.3303719

 *** Max element size =    24.0000000
 *** Min element size =    1.50000000
 *** Max/min ratio =    16.0000000

 *** Minimum period resolved =    2.00000014E-02
 *** Maximum suggested time step =    5.17306762E-05

 *** for DT :    5.0000000000000002E-005
 *** Max stability for wave velocities =   0.483272254

 Elapsed time for checking mesh resolution in seconds =    1.3821125030517578E-003
 saving VTK files for Courant number and minimum period

 ******************************************
 There is a total of            2  slices
 ******************************************

 mesh surfaces:
   high-resolution  =  T
   nfaces per slice =           36          36

   total number of surface faces is           72

 surface movies:
   saving: particle velocities
   number of steps between frames =          200


 sources:
 no UTM projection

 *************************************
  locating source            1
 *************************************

 source located in slice            0
                in element         1246
                in elastic domain

 using force point source:
   xi coordinate of source in that element:  -0.47083333333333333
   eta coordinate of source in that element:  -0.92000000000000193
   gamma coordinate of source in that element:    1.0000000000000000

   component of direction vector in East direction:    0.0000000000000000
   component of direction vector in North direction:    0.0000000000000000
   component of direction vector in Vertical direction:   -1.0000000000000000

   nu1 =    1.0000000000000000        0.0000000000000000        0.0000000000000000
   nu2 =    0.0000000000000000        1.0000000000000000        0.0000000000000000
   nu3 =    0.0000000000000000        0.0000000000000000        1.0000000000000000

   at (x,y,z) coordinates =    78.349999999999994        72.959999999999965        0.0000000000000000

 source time function:
   using Ricker source time function
   using a source of dominant frequency    30.000000000000000
   t0_ricker =    4.0000000000000001E-002
   Ricker frequency:    30.000000000000000       Hz

   time shift:    0.0000000000000000       seconds

 magnitude of the source:
   factor =    10000000000.000000

 original (requested) position of the source:

           latitude:    72.959999999999994
          longitude:    78.349999999999994

              x:    78.349999999999994
              y:    72.959999999999994
          depth:    0.0000000000000000       km
 topo elevation:    0.0000000000000000

 position of the source that will be used:

              x:    78.349999999999994
              y:    72.959999999999965
          depth:    0.0000000000000000       km
              z:    0.0000000000000000

 error in location of the source:    2.84217094E-14  m

 maximum error in location of the sources:    2.84217094E-14  m


 Elapsed time for detection of sources in seconds =    5.6004524230957031E-004

 End of source detection - done


 Each source is being convolved with HDUR_MOVIE =    0.0000000000000000


 receivers:

 there are          720  stations in file ./DATA/STATIONS
 saving          720  stations inside the model in file ./DATA/STATIONS_FILTERED
 excluding            0  stations located outside the model


 Total number of receivers =          720


 ********************
  locating receivers
 ********************

 reading receiver information from ./DATA/STATIONS_FILTERED file


 station #            1     DB    X1
      original latitude:    80.0100021
      original longitude:    186.940002
      original x:    186.940002
      original y:    80.0100021
      original depth:    0.00000000      m
      horizontal distance:   0.10881861329754208
      target x, y, z:    186.940002       80.0100021       0.00000000
      closest estimate found:    0.00000000      m away

      receiver located in slice            1
                       in element         1238
                       in elastic domain
      at coordinates:
      xi    =   0.57833333333333292
      eta   =  -0.33249999999999963
      gamma =    1.0000000000000000
      rotation matrix:
      nu1 =    1.0000000000000000        0.0000000000000000        0.0000000000000000
      nu2 =    0.0000000000000000        1.0000000000000000        0.0000000000000000
      nu3 =    0.0000000000000000        0.0000000000000000        1.0000000000000000
      x:    186.94000000000000
      y:    80.010000000000005
      depth:    0.0000000000000000       m
      z:    0.0000000000000000



 station #            2     DB    X2
      original latitude:    80.0299988
      original longitude:    185.929993
      original x:    185.929993
      original y:    80.0299988
      original depth:    0.00000000      m
      horizontal distance:   0.10781206472375902
      target x, y, z:    185.929993       80.0299988       0.00000000
      closest estimate found:    5.68434189E-14  m away

      receiver located in slice            1
                       in element         1238
                       in elastic domain
      at coordinates:
      xi    =   0.49416666666666953
      eta   =  -0.33083333333333331
      gamma =    1.0000000000000000
      rotation matrix:
      nu1 =    1.0000000000000000        0.0000000000000000        0.0000000000000000
      nu2 =    0.0000000000000000        1.0000000000000000        0.0000000000000000
      nu3 =    0.0000000000000000        0.0000000000000000        1.0000000000000000
      x:    185.93000000000006
      y:    80.030000000000001
      depth:    0.0000000000000000       m
      z:    0.0000000000000000



 station #            3     DB    X3
      original latitude:    80.0500031
      original longitude:    184.899994
      original x:    184.899994
      original y:    80.0500031
      original depth:    0.00000000      m
      horizontal distance:   0.10678562918295702
      target x, y, z:    184.899994       80.0500031       0.00000000
      closest estimate found:    0.00000000      m away

      receiver located in slice            1
                       in element         1238
                       in elastic domain
      at coordinates:
      xi    =   0.40833333333333366
      eta   =  -0.32916666666666694
      gamma =    1.0000000000000000
      rotation matrix:
      nu1 =    1.0000000000000000        0.0000000000000000        0.0000000000000000
      nu2 =    0.0000000000000000        1.0000000000000000        0.0000000000000000
      nu3 =    0.0000000000000000        0.0000000000000000        1.0000000000000000
      x:    184.90000000000001
      y:    80.049999999999997
      depth:    0.0000000000000000       m
      z:    0.0000000000000000



 station #            4     DB    X4
      original latitude:    80.0699997
      original longitude:    183.889999
      original x:    183.889999
      original y:    80.0699997
      original depth:    0.00000000      m
      horizontal distance:   0.10577922149458276
      target x, y, z:    183.889999       80.0699997       0.00000000
      closest estimate found:    0.00000000      m away

      receiver located in slice            1
                       in element         1238
                       in elastic domain
      at coordinates:
      xi    =   0.32416666666666549
      eta   =  -0.32750000000000057
      gamma =    1.0000000000000000
      rotation matrix:
      nu1 =    1.0000000000000000        0.0000000000000000        0.0000000000000000
      nu2 =    0.0000000000000000        1.0000000000000000        0.0000000000000000
      nu3 =    0.0000000000000000        0.0000000000000000        1.0000000000000000
      x:    183.88999999999999
      y:    80.069999999999993
      depth:    0.0000000000000000       m
      z:    0.0000000000000000



 station #            5     DB    X5
      original latitude:    80.0100021
      original longitude:    182.929993
      original x:    182.929993
      original y:    80.0100021
      original depth:    0.00000000      m
      horizontal distance:   0.10481735972633542
      target x, y, z:    182.929993       80.0100021       0.00000000
      closest estimate found:    2.84217094E-14  m away

      receiver located in slice            1
                       in element         1238
                       in elastic domain
      at coordinates:
      xi    =   0.24416666666666487
      eta   =  -0.33250000000000074
      gamma =    1.0000000000000000
      rotation matrix:
      nu1 =    1.0000000000000000        0.0000000000000000        0.0000000000000000
      nu2 =    0.0000000000000000        1.0000000000000000        0.0000000000000000
      nu3 =    0.0000000000000000        0.0000000000000000        1.0000000000000000
      x:    182.92999999999998
      y:    80.010000000000005
      depth:    0.0000000000000000       m
      z:    0.0000000000000000



 station #            6     DB    X6
      original latitude:    80.0299988
      original longitude:    181.910004
      original x:    181.910004
      original y:    80.0299988
      original depth:    0.00000000      m
      horizontal distance:   0.10380105249948096
      target x, y, z:    181.910004       80.0299988       0.00000000
      closest estimate found:    1.42108547E-14  m away

      receiver located in slice            1
                       in element         1238
                       in elastic domain
      at coordinates:
      xi    =   0.15916666666666401
      eta   =  -0.33083333333333326
      gamma =    1.0000000000000000
      rotation matrix:
      nu1 =    1.0000000000000000        0.0000000000000000        0.0000000000000000
      nu2 =    0.0000000000000000        1.0000000000000000        0.0000000000000000
      nu3 =    0.0000000000000000        0.0000000000000000        1.0000000000000000
      x:    181.91000000000000
      y:    80.029999999999987
      depth:    0.0000000000000000       m
      z:    0.0000000000000000



 station #            7     DB    X7
      original latitude:    80.0500031
      original longitude:    180.899994
      original x:    180.899994
      original y:    80.0500031
      original depth:    0.00000000      m
      horizontal distance:   0.10279479850653925
      target x, y, z:    180.899994       80.0500031       0.00000000
      closest estimate found:    0.00000000      m away

      receiver located in slice            1
                       in element         1238
                       in elastic domain
      at coordinates:
      xi    =    7.5000000000000469E-002
      eta   =  -0.32916666666666689
      gamma =    1.0000000000000000
      rotation matrix:
      nu1 =    1.0000000000000000        0.0000000000000000        0.0000000000000000
      nu2 =    0.0000000000000000        1.0000000000000000        0.0000000000000000
      nu3 =    0.0000000000000000        0.0000000000000000        1.0000000000000000
      x:    180.90000000000001
      y:    80.049999999999997
      depth:    0.0000000000000000       m
      z:    0.0000000000000000



 station #            8     DB    X8
      original latitude:    79.9899979
      original longitude:    179.940002
      original x:    179.940002
      original y:    79.9899979
      original depth:    0.00000000      m
      horizontal distance:   0.10183294653499918
      target x, y, z:    179.940002       79.9899979       0.00000000
      closest estimate found:    3.17764376E-14  m away

      receiver located in slice            1
                       in element         1238
                       in elastic domain
      at coordinates:
      xi    =   -5.0000000000001883E-003
      eta   =  -0.33416666666666711
      gamma =    1.0000000000000000
      rotation matrix:
      nu1 =    1.0000000000000000        0.0000000000000000        0.0000000000000000
      nu2 =    0.0000000000000000        1.0000000000000000        0.0000000000000000
      nu3 =    0.0000000000000000        0.0000000000000000        1.0000000000000000
      x:    179.93999999999997
      y:    79.989999999999981
      depth:    0.0000000000000000       m
      z:    0.0000000000000000



 station #            9     DB    X9
      original latitude:    80.0199966
      original longitude:    178.919998
      original x:    178.919998
      original y:    80.0199966
      original depth:    0.00000000      m
      horizontal distance:   0.10081750096089467
      target x, y, z:    178.919998       80.0199966       0.00000000
      closest estimate found:    0.00000000      m away

      receiver located in slice            1
                       in element         1238
                       in elastic domain
      at coordinates:
      xi    =   -9.0000000000001038E-002
      eta   =  -0.33166666666666700
      gamma =    1.0000000000000000
      rotation matrix:
      nu1 =    1.0000000000000000        0.0000000000000000        0.0000000000000000
      nu2 =    0.0000000000000000        1.0000000000000000        0.0000000000000000
      nu3 =    0.0000000000000000        0.0000000000000000        1.0000000000000000
      x:    178.91999999999999
      y:    80.019999999999996
      depth:    0.0000000000000000       m
      z:    0.0000000000000000



 station #           10     DB    X10
      original latitude:    80.0400009
      original longitude:    177.899994
      original x:    177.899994
      original y:    80.0400009
      original depth:    0.00000000      m
      horizontal distance:    9.9801447384294001E-002
      target x, y, z:    177.899994       80.0400009       0.00000000
      closest estimate found:    1.42108547E-14  m away

      receiver located in slice            1
                       in element         1238
                       in elastic domain
      at coordinates:
      xi    =  -0.17499999999999952
      eta   =  -0.32999999999999946
      gamma =    1.0000000000000000
      rotation matrix:
      nu1 =    1.0000000000000000        0.0000000000000000        0.0000000000000000
      nu2 =    0.0000000000000000        1.0000000000000000        0.0000000000000000
      nu3 =    0.0000000000000000        0.0000000000000000        1.0000000000000000
      x:    177.90000000000001
      y:    80.040000000000020
      depth:    0.0000000000000000       m
      z:    0.0000000000000000



 station #           11     DB    X11
      original latitude:    80.0599976
      original longitude:    176.889999
      original x:    176.889999
      original y:    80.0599976
      original depth:    0.00000000      m
      horizontal distance:    9.8795453336679412E-002
      target x, y, z:    176.889999       80.0599976       0.00000000
      closest estimate found:    2.84217094E-14  m away

      receiver located in slice            1
                       in element         1238
                       in elastic domain
      at coordinates:
      xi    =  -0.25916666666666777
      eta   =  -0.32833333333333314
      gamma =    1.0000000000000000
      rotation matrix:
      nu1 =    1.0000000000000000        0.0000000000000000        0.0000000000000000
      nu2 =    0.0000000000000000        1.0000000000000000        0.0000000000000000
      nu3 =    0.0000000000000000        0.0000000000000000        1.0000000000000000
      x:    176.88999999999996
      y:    80.060000000000002
      depth:    0.0000000000000000       m
      z:    0.0000000000000000



 station #           12     DB    X12
      original latitude:    80.0000000
      original longitude:    175.929993
      original x:    175.929993
      original y:    80.0000000
      original depth:    0.00000000      m
      horizontal distance:    9.7833624076796855E-002
      target x, y, z:    175.929993       80.0000000       0.00000000
      closest estimate found:    0.00000000      m away

      receiver located in slice            1
                       in element         1238
                       in elastic domain
      at coordinates:
      xi    =  -0.33916666666666856
      eta   =  -0.33333333333333337
      gamma =    1.0000000000000000
      rotation matrix:
      nu1 =    1.0000000000000000        0.0000000000000000        0.0000000000000000
      nu2 =    0.0000000000000000        1.0000000000000000        0.0000000000000000
      nu3 =    0.0000000000000000        0.0000000000000000        1.0000000000000000
      x:    175.93000000000001
      y:    80.000000000000000
      depth:    0.0000000000000000       m
      z:    0.0000000000000000



 station #           13     DB    X13
      original latitude:    80.0199966
      original longitude:    174.910004
      original x:    174.910004
      original y:    80.0199966
      original depth:    0.00000000      m
      horizontal distance:    9.6817752504383209E-002
      target x, y, z:    174.910004       80.0199966       0.00000000
      closest estimate found:    2.84217094E-14  m away

      receiver located in slice            1
                       in element         1238
                       in elastic domain
      at coordinates:
      xi    =  -0.42416666666666464
      eta   =  -0.33166666666666705
      gamma =    1.0000000000000000
      rotation matrix:
      nu1 =    1.0000000000000000        0.0000000000000000        0.0000000000000000
      nu2 =    0.0000000000000000        1.0000000000000000        0.0000000000000000
      nu3 =    0.0000000000000000        0.0000000000000000        1.0000000000000000
      x:    174.91000000000003
      y:    80.019999999999996
      depth:    0.0000000000000000       m
      z:    0.0000000000000000



 station #           14     DB    X14
      original latitude:    80.0400009
      original longitude:    173.899994
      original x:    173.899994
      original y:    80.0400009
      original depth:    0.00000000      m
      horizontal distance:    9.5811945497416992E-002
      target x, y, z:    173.899994       80.0400009       0.00000000
      closest estimate found:    3.17764376E-14  m away

      receiver located in slice            1
                       in element         1238
                       in elastic domain
      at coordinates:
      xi    =  -0.50833333333333541
      eta   =  -0.33000000000000068
      gamma =    1.0000000000000000
      rotation matrix:
      nu1 =    1.0000000000000000        0.0000000000000000        0.0000000000000000
      nu2 =    0.0000000000000000        1.0000000000000000        0.0000000000000000
      nu3 =    0.0000000000000000        0.0000000000000000        1.0000000000000000
      x:    173.89999999999998
      y:    80.039999999999992
      depth:    0.0000000000000000       m
      z:    0.0000000000000000



 station #           15     DB    X15
      original latitude:    79.9800034
      original longitude:    172.940002
      original x:    172.940002
      original y:    79.9800034
      original depth:    0.00000000      m
      horizontal distance:    9.4850137058414413E-002
      target x, y, z:    172.940002       79.9800034       0.00000000
      closest estimate found:    0.00000000      m away

      receiver located in slice            1
                       in element         1238
                       in elastic domain
      at coordinates:
      xi    =  -0.58833333333333360
      eta   =  -0.33499999999999974
      gamma =    1.0000000000000000
      rotation matrix:
      nu1 =    1.0000000000000000        0.0000000000000000        0.0000000000000000
      nu2 =    0.0000000000000000        1.0000000000000000        0.0000000000000000
      nu3 =    0.0000000000000000        0.0000000000000000        1.0000000000000000
      x:    172.94000000000000
      y:    79.980000000000004
      depth:    0.0000000000000000       m
      z:    0.0000000000000000



 station #           16     DB    X16
      original latitude:    80.0100021
      original longitude:    171.919998
      original x:    171.919998
      original y:    80.0100021
      original depth:    0.00000000      m
      horizontal distance:    9.3835214072330003E-002
      target x, y, z:    171.919998       80.0100021       0.00000000
      closest estimate found:    2.84217094E-14  m away

      receiver located in slice            1
                       in element         1238
                       in elastic domain
      at coordinates:
      xi    =  -0.67333333333333212
      eta   =  -0.33249999999999963
      gamma =    1.0000000000000000
      rotation matrix:
      nu1 =    1.0000000000000000        0.0000000000000000        0.0000000000000000
      nu2 =    0.0000000000000000        1.0000000000000000        0.0000000000000000
      nu3 =    0.0000000000000000        0.0000000000000000        1.0000000000000000
      x:    171.92000000000002
      y:    80.010000000000005
      depth:    0.0000000000000000       m
      z:    0.0000000000000000



 station #           17     DB    X17
      original latitude:    80.0299988
      original longitude:    170.910004
      original x:    170.910004
      original y:    80.0299988
      original depth:    0.00000000      m
      horizontal distance:    9.2829620811462982E-002
      target x, y, z:    170.910004       80.0299988       0.00000000
      closest estimate found:    2.84217094E-14  m away

      receiver located in slice            1
                       in element         1238
                       in elastic domain
      at coordinates:
      xi    =  -0.75749999999999806
      eta   =  -0.33083333333333331
      gamma =    1.0000000000000000
      rotation matrix:
      nu1 =    1.0000000000000000        0.0000000000000000        0.0000000000000000
      nu2 =    0.0000000000000000        1.0000000000000000        0.0000000000000000
      nu3 =    0.0000000000000000        0.0000000000000000        1.0000000000000000
      x:    170.91000000000003
      y:    80.030000000000001
      depth:    0.0000000000000000       m
      z:    0.0000000000000000



 station #           18     DB    X18
      original latitude:    80.0500031
      original longitude:    169.889999
      original x:    169.889999
      original y:    80.0500031
      original depth:    0.00000000      m
      horizontal distance:    9.1814158494210471E-002
      target x, y, z:    169.889999       80.0500031       0.00000000
      closest estimate found:    1.42108547E-14  m away

      receiver located in slice            1
                       in element         1238
                       in elastic domain
      at coordinates:
      xi    =  -0.84250000000000136
      eta   =  -0.32916666666666644
      gamma =    1.0000000000000000
      rotation matrix:
      nu1 =    1.0000000000000000        0.0000000000000000        0.0000000000000000
      nu2 =    0.0000000000000000        1.0000000000000000        0.0000000000000000
      nu3 =    0.0000000000000000        0.0000000000000000        1.0000000000000000
      x:    169.88999999999999
      y:    80.050000000000011
      depth:    0.0000000000000000       m
      z:    0.0000000000000000



 station #           19     DB    X19
      original latitude:    79.9899979
      original longitude:    168.929993
      original x:    168.929993
      original y:    79.9899979
      original depth:    0.00000000      m
      horizontal distance:    9.0852392923907094E-002
      target x, y, z:    168.929993       79.9899979       0.00000000
      closest estimate found:    0.00000000      m away

      receiver located in slice            1
                       in element         1238
                       in elastic domain
      at coordinates:
      xi    =  -0.92249999999999943
      eta   =  -0.33416666666666661
      gamma =    1.0000000000000000
      rotation matrix:
      nu1 =    1.0000000000000000        0.0000000000000000        0.0000000000000000
      nu2 =    0.0000000000000000        1.0000000000000000        0.0000000000000000
      nu3 =    0.0000000000000000        0.0000000000000000        1.0000000000000000
      x:    168.93000000000001
      y:    79.989999999999995
      depth:    0.0000000000000000       m
      z:    0.0000000000000000



 station #           20     DB    X20
      original latitude:    80.0100021
      original longitude:    167.919998
      original x:    167.919998
      original y:    80.0100021
      original depth:    0.00000000      m
      horizontal distance:    8.9847022209976424E-002
      target x, y, z:    167.919998       80.0100021       0.00000000
      closest estimate found:    0.00000000      m away

      receiver located in slice            1
                       in element         1237
                       in elastic domain
      at coordinates:
      xi    =   0.99333333333333229
      eta   =  -0.33249999999999963
      gamma =    1.0000000000000000
      rotation matrix:
      nu1 =    1.0000000000000000        0.0000000000000000        0.0000000000000000
      nu2 =    0.0000000000000000        1.0000000000000000        0.0000000000000000
      nu3 =    0.0000000000000000        0.0000000000000000        1.0000000000000000
      x:    167.91999999999999
      y:    80.010000000000005
      depth:    0.0000000000000000       m
      z:    0.0000000000000000



 station #           21     DB    X21
      original latitude:    80.0299988
      original longitude:    166.899994
      original x:    166.899994
      original y:    80.0299988
      original depth:    0.00000000      m
      horizontal distance:    8.8831792732106910E-002
      target x, y, z:    166.899994       80.0299988       0.00000000
      closest estimate found:    0.00000000      m away

      receiver located in slice            1
                       in element         1237
                       in elastic domain
      at coordinates:
      xi    =   0.90833333333333377
      eta   =  -0.33083333333333331
      gamma =    1.0000000000000000
      rotation matrix:
      nu1 =    1.0000000000000000        0.0000000000000000        0.0000000000000000
      nu2 =    0.0000000000000000        1.0000000000000000        0.0000000000000000
      nu3 =    0.0000000000000000        0.0000000000000000        1.0000000000000000
      x:    166.90000000000001
      y:    80.030000000000001
      depth:    0.0000000000000000       m
      z:    0.0000000000000000



 station #           22     DB    X22
      original latitude:    80.0599976
      original longitude:    165.889999
      original x:    165.889999
      original y:    80.0599976
      original depth:    0.00000000      m
      horizontal distance:    8.7827453566638250E-002
      target x, y, z:    165.889999       80.0599976       0.00000000
      closest estimate found:    0.00000000      m away

      receiver located in slice            1
                       in element         1237
                       in elastic domain
      at coordinates:
      xi    =   0.82416666666666538
      eta   =  -0.32833333333333331
      gamma =    1.0000000000000000
      rotation matrix:
      nu1 =    1.0000000000000000        0.0000000000000000        0.0000000000000000
      nu2 =    0.0000000000000000        1.0000000000000000        0.0000000000000000
      nu3 =    0.0000000000000000        0.0000000000000000        1.0000000000000000
      x:    165.88999999999999
      y:    80.060000000000002
      depth:    0.0000000000000000       m
      z:    0.0000000000000000



 station #           23     DB    X23
      original latitude:    80.0000000
      original longitude:    164.929993
      original x:    164.929993
      original y:    80.0000000
      original depth:    0.00000000      m
      horizontal distance:    8.6865746989247733E-002
      target x, y, z:    164.929993       80.0000000       0.00000000
      closest estimate found:    0.00000000      m away

      receiver located in slice            1
                       in element         1237
                       in elastic domain
      at coordinates:
      xi    =   0.74416666666666709
      eta   =  -0.33333333333333348
      gamma =    1.0000000000000000
      rotation matrix:
      nu1 =    1.0000000000000000        0.0000000000000000        0.0000000000000000
      nu2 =    0.0000000000000000        1.0000000000000000        0.0000000000000000
      nu3 =    0.0000000000000000        0.0000000000000000        1.0000000000000000
      x:    164.93000000000001
      y:    80.000000000000000
      depth:    0.0000000000000000       m
      z:    0.0000000000000000



 station #           24     DB    X24
      original latitude:    80.0199966
      original longitude:    163.910004
      original x:    163.910004
      original y:    80.0199966
      original depth:    0.00000000      m
      horizontal distance:    8.5850784504278119E-002
      target x, y, z:    163.910004       80.0199966       0.00000000
      closest estimate found:    2.84217094E-14  m away

      receiver located in slice            1
                       in element         1237
                       in elastic domain
      at coordinates:
      xi    =   0.65916666666666623
      eta   =  -0.33166666666666716
      gamma =    1.0000000000000000
      rotation matrix:
      nu1 =    1.0000000000000000        0.0000000000000000        0.0000000000000000
      nu2 =    0.0000000000000000        1.0000000000000000        0.0000000000000000
      nu3 =    0.0000000000000000        0.0000000000000000        1.0000000000000000
      x:    163.90999999999997
      y:    80.019999999999996
      depth:    0.0000000000000000       m
      z:    0.0000000000000000



 station #           25     DB    X25
      original latitude:    80.0400009
      original longitude:    162.899994
      original x:    162.899994
      original y:    80.0400009
      original depth:    0.00000000      m
      horizontal distance:    8.4845912688826700E-002
      target x, y, z:    162.899994       80.0400009       0.00000000
      closest estimate found:    3.17764376E-14  m away

      receiver located in slice            1
                       in element         1237
                       in elastic domain
      at coordinates:
      xi    =   0.57500000000000029
      eta   =  -0.32999999999999846
      gamma =    1.0000000000000000
      rotation matrix:
      nu1 =    1.0000000000000000        0.0000000000000000        0.0000000000000000
      nu2 =    0.0000000000000000        1.0000000000000000        0.0000000000000000
      nu3 =    0.0000000000000000        0.0000000000000000        1.0000000000000000
      x:    162.89999999999998
      y:    80.040000000000020
      depth:    0.0000000000000000       m
      z:    0.0000000000000000



 station #           26     DB    X26
      original latitude:    79.9800034
      original longitude:    161.940002
      original x:    161.940002
      original y:    79.9800034
      original depth:    0.00000000      m
      horizontal distance:    8.3884256568202364E-002
      target x, y, z:    161.940002       79.9800034       0.00000000
      closest estimate found:    3.17764376E-14  m away

      receiver located in slice            1
                       in element         1237
                       in elastic domain
      at coordinates:
      xi    =   0.49499999999999716
      eta   =  -0.33499999999999985
      gamma =    1.0000000000000000
      rotation matrix:
      nu1 =    1.0000000000000000        0.0000000000000000        0.0000000000000000
      nu2 =    0.0000000000000000        1.0000000000000000        0.0000000000000000
      nu3 =    0.0000000000000000        0.0000000000000000        1.0000000000000000
      x:    161.93999999999997
      y:    79.979999999999990
      depth:    0.0000000000000000       m
      z:    0.0000000000000000



 station #           27     DB    X27
      original latitude:    80.0000000
      original longitude:    160.919998
      original x:    160.919998
      original y:    80.0000000
      original depth:    0.00000000      m
      horizontal distance:    8.2869575237236495E-002
      target x, y, z:    160.919998       80.0000000       0.00000000
      closest estimate found:    0.00000000      m away

      receiver located in slice            1
                       in element         1237
                       in elastic domain
      at coordinates:
      xi    =   0.40999999999999870
      eta   =  -0.33333333333333348
      gamma =    1.0000000000000000
      rotation matrix:
      nu1 =    1.0000000000000000        0.0000000000000000        0.0000000000000000
      nu2 =    0.0000000000000000        1.0000000000000000        0.0000000000000000
      nu3 =    0.0000000000000000        0.0000000000000000        1.0000000000000000
      x:    160.91999999999999
      y:    80.000000000000000
      depth:    0.0000000000000000       m
      z:    0.0000000000000000



 station #           28     DB    X28
      original latitude:    80.0199966
      original longitude:    159.910004
      original x:    159.910004
      original y:    80.0199966
      original depth:    0.00000000      m
      horizontal distance:    8.1864993739693165E-002
      target x, y, z:    159.910004       80.0199966       0.00000000
      closest estimate found:    0.00000000      m away

      receiver located in slice            1
                       in element         1237
                       in elastic domain
      at coordinates:
      xi    =   0.32583333333333320
      eta   =  -0.33166666666666705
      gamma =    1.0000000000000000
      rotation matrix:
      nu1 =    1.0000000000000000        0.0000000000000000        0.0000000000000000
      nu2 =    0.0000000000000000        1.0000000000000000        0.0000000000000000
      nu3 =    0.0000000000000000        0.0000000000000000        1.0000000000000000
      x:    159.91000000000000
      y:    80.019999999999996
      depth:    0.0000000000000000       m
      z:    0.0000000000000000



 station #           29     DB    X29
      original latitude:    80.0500031
      original longitude:    158.889999
      original x:    158.889999
      original y:    80.0500031
      original depth:    0.00000000      m
      horizontal distance:    8.0851466900730987E-002
      target x, y, z:    158.889999       80.0500031       0.00000000
      closest estimate found:    0.00000000      m away

      receiver located in slice            1
                       in element         1237
                       in elastic domain
      at coordinates:
      xi    =   0.24083333333333232
      eta   =  -0.32916666666666694
      gamma =    1.0000000000000000
      rotation matrix:
      nu1 =    1.0000000000000000        0.0000000000000000        0.0000000000000000
      nu2 =    0.0000000000000000        1.0000000000000000        0.0000000000000000
      nu3 =    0.0000000000000000        0.0000000000000000        1.0000000000000000
      x:    158.88999999999999
      y:    80.049999999999997
      depth:    0.0000000000000000       m
      z:    0.0000000000000000



 station #           30     DB    X30
      original latitude:    79.9899979
      original longitude:    157.929993
      original x:    157.929993
      original y:    79.9899979
      original depth:    0.00000000      m
      horizontal distance:    7.9889907372583696E-002
      target x, y, z:    157.929993       79.9899979       0.00000000
      closest estimate found:    0.00000000      m away

      receiver located in slice            1
                       in element         1237
                       in elastic domain
      at coordinates:
      xi    =   0.16083333333333397
      eta   =  -0.33416666666666717
      gamma =    1.0000000000000000
      rotation matrix:
      nu1 =    1.0000000000000000        0.0000000000000000        0.0000000000000000
      nu2 =    0.0000000000000000        1.0000000000000000        0.0000000000000000
      nu3 =    0.0000000000000000        0.0000000000000000        1.0000000000000000
      x:    157.93000000000001
      y:    79.989999999999995
      depth:    0.0000000000000000       m
      z:    0.0000000000000000



 station #           31     DB    X31
      original latitude:    80.0100021
      original longitude:    156.919998
      original x:    156.919998
      original y:    80.0100021
      original depth:    0.00000000      m
      horizontal distance:    7.8885660293870896E-002
      target x, y, z:    156.919998       80.0100021       0.00000000
      closest estimate found:    0.00000000      m away

      receiver located in slice            1
                       in element         1237
                       in elastic domain
      at coordinates:
      xi    =    7.6666666666665662E-002
      eta   =  -0.33249999999999963
      gamma =    1.0000000000000000
      rotation matrix:
      nu1 =    1.0000000000000000        0.0000000000000000        0.0000000000000000
      nu2 =    0.0000000000000000        1.0000000000000000        0.0000000000000000
      nu3 =    0.0000000000000000        0.0000000000000000        1.0000000000000000
      x:    156.91999999999999
      y:    80.010000000000005
      depth:    0.0000000000000000       m
      z:    0.0000000000000000



 station #           32     DB    X32
      original latitude:    80.0299988
      original longitude:    155.899994
      original x:    155.899994
      original y:    80.0299988
      original depth:    0.00000000      m
      horizontal distance:    7.7871608433369363E-002
      target x, y, z:    155.899994       80.0299988       0.00000000
      closest estimate found:    0.00000000      m away

      receiver located in slice            1
                       in element         1237
                       in elastic domain
      at coordinates:
      xi    =   -8.3333333333352310E-003
      eta   =  -0.33083333333333331
      gamma =    1.0000000000000000
      rotation matrix:
      nu1 =    1.0000000000000000        0.0000000000000000        0.0000000000000000
      nu2 =    0.0000000000000000        1.0000000000000000        0.0000000000000000
      nu3 =    0.0000000000000000        0.0000000000000000        1.0000000000000000
      x:    155.90000000000001
      y:    80.030000000000001
      depth:    0.0000000000000000       m
      z:    0.0000000000000000



 station #           33     DB    X33
      original latitude:    79.9700012
      original longitude:    154.940002
      original x:    154.940002
      original y:    79.9700012
      original depth:    0.00000000      m
      horizontal distance:    7.6910130672103283E-002
      target x, y, z:    154.940002       79.9700012       0.00000000
      closest estimate found:    0.00000000      m away

      receiver located in slice            1
                       in element         1237
                       in elastic domain
      at coordinates:
      xi    =   -8.8333333333333555E-002
      eta   =  -0.33583333333333348
      gamma =    1.0000000000000000
      rotation matrix:
      nu1 =    1.0000000000000000        0.0000000000000000        0.0000000000000000
      nu2 =    0.0000000000000000        1.0000000000000000        0.0000000000000000
      nu3 =    0.0000000000000000        0.0000000000000000        1.0000000000000000
      x:    154.94000000000000
      y:    79.969999999999999
      depth:    0.0000000000000000       m
      z:    0.0000000000000000



 station #           34     DB    X34
      original latitude:    79.9899979
      original longitude:    153.929993
      original x:    153.929993
      original y:    79.9899979
      original depth:    0.00000000      m
      horizontal distance:    7.5906240191436186E-002
      target x, y, z:    153.929993       79.9899979       0.00000000
      closest estimate found:    0.00000000      m away

      receiver located in slice            1
                       in element         1237
                       in elastic domain
      at coordinates:
      xi    =  -0.17249999999999951
      eta   =  -0.33416666666666717
      gamma =    1.0000000000000000
      rotation matrix:
      nu1 =    1.0000000000000000        0.0000000000000000        0.0000000000000000
      nu2 =    0.0000000000000000        1.0000000000000000        0.0000000000000000
      nu3 =    0.0000000000000000        0.0000000000000000        1.0000000000000000
      x:    153.93000000000001
      y:    79.989999999999995
      depth:    0.0000000000000000       m
      z:    0.0000000000000000



 station #           35     DB    X35
      original latitude:    80.0100021
      original longitude:    152.910004
      original x:    152.910004
      original y:    80.0100021
      original depth:    0.00000000      m
      horizontal distance:    7.4892563716299640E-002
      target x, y, z:    152.910004       80.0100021       0.00000000
      closest estimate found:    0.00000000      m away

      receiver located in slice            1
                       in element         1237
                       in elastic domain
      at coordinates:
      xi    =  -0.25750000000000040
      eta   =  -0.33249999999999963
      gamma =    1.0000000000000000
      rotation matrix:
      nu1 =    1.0000000000000000        0.0000000000000000        0.0000000000000000
      nu2 =    0.0000000000000000        1.0000000000000000        0.0000000000000000
      nu3 =    0.0000000000000000        0.0000000000000000        1.0000000000000000
      x:    152.91000000000000
      y:    80.010000000000005
      depth:    0.0000000000000000       m
      z:    0.0000000000000000



 station #           36     DB    X36
      original latitude:    80.0400009
      original longitude:    151.889999
      original x:    151.889999
      original y:    80.0400009
      original depth:    0.00000000      m
      horizontal distance:    7.3880024363829219E-002
      target x, y, z:    151.889999       80.0400009       0.00000000
      closest estimate found:    0.00000000      m away

      receiver located in slice            1
                       in element         1237
                       in elastic domain
      at coordinates:
      xi    =  -0.34250000000000119
      eta   =  -0.32999999999999952
      gamma =    1.0000000000000000
      rotation matrix:
      nu1 =    1.0000000000000000        0.0000000000000000        0.0000000000000000
      nu2 =    0.0000000000000000        1.0000000000000000        0.0000000000000000
      nu3 =    0.0000000000000000        0.0000000000000000        1.0000000000000000
      x:    151.88999999999999
      y:    80.040000000000006
      depth:    0.0000000000000000       m
      z:    0.0000000000000000



 station #           37     DB    X37
      original latitude:    79.9800034
      original longitude:    150.940002
      original x:    150.940002
      original y:    79.9800034
      original depth:    0.00000000      m
      horizontal distance:    7.2928653490929071E-002
      target x, y, z:    150.940002       79.9800034       0.00000000
      closest estimate found:    1.42108547E-14  m away

      receiver located in slice            1
                       in element         1237
                       in elastic domain
      at coordinates:
      xi    =  -0.42166666666666697
      eta   =  -0.33499999999999974
      gamma =    1.0000000000000000
      rotation matrix:
      nu1 =    1.0000000000000000        0.0000000000000000        0.0000000000000000
      nu2 =    0.0000000000000000        1.0000000000000000        0.0000000000000000
      nu3 =    0.0000000000000000        0.0000000000000000        1.0000000000000000
      x:    150.94000000000000
      y:    79.979999999999990
      depth:    0.0000000000000000       m
      z:    0.0000000000000000



 station #           38     DB    X38
      original latitude:    80.0000000
      original longitude:    149.919998
      original x:    149.919998
      original y:    80.0000000
      original depth:    0.00000000      m
      horizontal distance:    7.1915412117292368E-002
      target x, y, z:    149.919998       80.0000000       0.00000000
      closest estimate found:    0.00000000      m away

      receiver located in slice            1
                       in element         1237
                       in elastic domain
      at coordinates:
      xi    =  -0.50666666666666793
      eta   =  -0.33333333333333337
      gamma =    1.0000000000000000
      rotation matrix:
      nu1 =    1.0000000000000000        0.0000000000000000        0.0000000000000000
      nu2 =    0.0000000000000000        1.0000000000000000        0.0000000000000000
      nu3 =    0.0000000000000000        0.0000000000000000        1.0000000000000000
      x:    149.91999999999999
      y:    80.000000000000000
      depth:    0.0000000000000000       m
      z:    0.0000000000000000



 station #           39     DB    X39
      original latitude:    80.0199966
      original longitude:    148.899994
      original x:    148.899994
      original y:    80.0199966
      original depth:    0.00000000      m
      horizontal distance:    7.0902370200156231E-002
      target x, y, z:    148.899994       80.0199966       0.00000000
      closest estimate found:    0.00000000      m away

      receiver located in slice            1
                       in element         1237
                       in elastic domain
      at coordinates:
      xi    =  -0.59166666666666634
      eta   =  -0.33166666666666705
      gamma =    1.0000000000000000
      rotation matrix:
      nu1 =    1.0000000000000000        0.0000000000000000        0.0000000000000000
      nu2 =    0.0000000000000000        1.0000000000000000        0.0000000000000000
      nu3 =    0.0000000000000000        0.0000000000000000        1.0000000000000000
      x:    148.90000000000001
      y:    80.019999999999996
      depth:    0.0000000000000000       m
      z:    0.0000000000000000



 station #           40     DB    X40
      original latitude:    79.9599991
      original longitude:    147.949997
      original x:    147.949997
      original y:    79.9599991
      original depth:    0.00000000      m
      horizontal distance:    6.9951125795086389E-002
      target x, y, z:    147.949997       79.9599991       0.00000000
      closest estimate found:    0.00000000      m away

      receiver located in slice            1
                       in element         1237
                       in elastic domain
      at coordinates:
      xi    =  -0.67083333333333450
      eta   =  -0.33666666666666722
      gamma =    1.0000000000000000
      rotation matrix:
      nu1 =    1.0000000000000000        0.0000000000000000        0.0000000000000000
      nu2 =    0.0000000000000000        1.0000000000000000        0.0000000000000000
      nu3 =    0.0000000000000000        0.0000000000000000        1.0000000000000000
      x:    147.94999999999999
      y:    79.959999999999994
      depth:    0.0000000000000000       m
      z:    0.0000000000000000



 station #           41     DB    X41
      original latitude:    79.9800034
      original longitude:    146.929993
      original x:    146.929993
      original y:    79.9800034
      original depth:    0.00000000      m
      horizontal distance:    6.8938355071759605E-002
      target x, y, z:    146.929993       79.9800034       0.00000000
      closest estimate found:    0.00000000      m away

      receiver located in slice            1
                       in element         1237
                       in elastic domain
      at coordinates:
      xi    =  -0.75583333333333302
      eta   =  -0.33499999999999974
      gamma =    1.0000000000000000
      rotation matrix:
      nu1 =    1.0000000000000000        0.0000000000000000        0.0000000000000000
      nu2 =    0.0000000000000000        1.0000000000000000        0.0000000000000000
      nu3 =    0.0000000000000000        0.0000000000000000        1.0000000000000000
      x:    146.93000000000001
      y:    79.980000000000004
      depth:    0.0000000000000000       m
      z:    0.0000000000000000



 station #           42     DB    X42
      original latitude:    80.0100021
      original longitude:    145.910004
      original x:    145.910004
      original y:    80.0100021
      original depth:    0.00000000      m
      horizontal distance:    6.7926843736478740E-002
      target x, y, z:    145.910004       80.0100021       0.00000000
      closest estimate found:    0.00000000      m away

      receiver located in slice            1
                       in element         1237
                       in elastic domain
      at coordinates:
      xi    =  -0.84083333333333354
      eta   =  -0.33249999999999963
      gamma =    1.0000000000000000
      rotation matrix:
      nu1 =    1.0000000000000000        0.0000000000000000        0.0000000000000000
      nu2 =    0.0000000000000000        1.0000000000000000        0.0000000000000000
      nu3 =    0.0000000000000000        0.0000000000000000        1.0000000000000000
      x:    145.91000000000000
      y:    80.010000000000005
      depth:    0.0000000000000000       m
      z:    0.0000000000000000



 station #           43     DB    X43
      original latitude:    80.0199966
      original longitude:    144.889999
      original x:    144.889999
      original y:    80.0199966
      original depth:    0.00000000      m
      horizontal distance:    6.6913490418599439E-002
      target x, y, z:    144.889999       80.0199966       0.00000000
      closest estimate found:    0.00000000      m away

      receiver located in slice            1
                       in element         1237
                       in elastic domain
      at coordinates:
      xi    =  -0.92583333333333440
      eta   =  -0.33166666666666705
      gamma =    1.0000000000000000
      rotation matrix:
      nu1 =    1.0000000000000000        0.0000000000000000        0.0000000000000000
      nu2 =    0.0000000000000000        1.0000000000000000        0.0000000000000000
      nu3 =    0.0000000000000000        0.0000000000000000        1.0000000000000000
      x:    144.88999999999999
      y:    80.019999999999996
      depth:    0.0000000000000000       m
      z:    0.0000000000000000



 station #           44     DB    X44
      original latitude:    79.9599991
      original longitude:    143.929993
      original x:    143.929993
      original y:    79.9599991
      original depth:    0.00000000      m
      horizontal distance:    6.5952531414647006E-002
      target x, y, z:    143.929993       79.9599991       0.00000000
      closest estimate found:    0.00000000      m away

      receiver located in slice            0
                       in element         1248
                       in elastic domain
      at coordinates:
      xi    =   0.99416666666666720
      eta   =  -0.33666666666666600
      gamma =    1.0000000000000000
      rotation matrix:
      nu1 =    1.0000000000000000        0.0000000000000000        0.0000000000000000
      nu2 =    0.0000000000000000        1.0000000000000000        0.0000000000000000
      nu3 =    0.0000000000000000        0.0000000000000000        1.0000000000000000
      x:    143.93000000000001
      y:    79.959999999999994
      depth:    0.0000000000000000       m
      z:    0.0000000000000000



 station #           45     DB    X45
      original latitude:    79.9800034
      original longitude:    142.919998
      original x:    142.919998
      original y:    79.9800034
      original depth:    0.00000000      m
      horizontal distance:    6.4950483447007532E-002
      target x, y, z:    142.919998       79.9800034       0.00000000
      closest estimate found:    0.00000000      m away

      receiver located in slice            0
                       in element         1248
                       in elastic domain
      at coordinates:
      xi    =   0.90999999999999892
      eta   =  -0.33499999999999969
      gamma =    1.0000000000000000
      rotation matrix:
      nu1 =    1.0000000000000000        0.0000000000000000        0.0000000000000000
      nu2 =    0.0000000000000000        1.0000000000000000        0.0000000000000000
      nu3 =    0.0000000000000000        0.0000000000000000        1.0000000000000000
      x:    142.91999999999999
      y:    79.980000000000004
      depth:    0.0000000000000000       m
      z:    0.0000000000000000



 station #           46     DB    X46
      original latitude:    80.0100021
      original longitude:    141.899994
      original x:    141.899994
      original y:    80.0100021
      original depth:    0.00000000      m
      horizontal distance:    6.3939854550976283E-002
      target x, y, z:    141.899994       80.0100021       0.00000000
      closest estimate found:    5.68434189E-14  m away

      receiver located in slice            0
                       in element         1248
                       in elastic domain
      at coordinates:
      xi    =   0.82499999999999796
      eta   =  -0.33249999999999963
      gamma =    1.0000000000000000
      rotation matrix:
      nu1 =    1.0000000000000000        0.0000000000000000        0.0000000000000000
      nu2 =    0.0000000000000000        1.0000000000000000        0.0000000000000000
      nu3 =    0.0000000000000000        0.0000000000000000        1.0000000000000000
      x:    141.89999999999995
      y:    80.010000000000005
      depth:    0.0000000000000000       m
      z:    0.0000000000000000



 station #           47     DB    X47
      original latitude:    80.0299988
      original longitude:    140.880005
      original x:    140.880005
      original y:    80.0299988
      original depth:    0.00000000      m
      horizontal distance:    6.2928418063701558E-002
      target x, y, z:    140.880005       80.0299988       0.00000000
      closest estimate found:    2.84217094E-14  m away

      receiver located in slice            0
                       in element         1248
                       in elastic domain
      at coordinates:
      xi    =   0.73999999999999955
      eta   =  -0.33083333333333331
      gamma =    1.0000000000000000
      rotation matrix:
      nu1 =    1.0000000000000000        0.0000000000000000        0.0000000000000000
      nu2 =    0.0000000000000000        1.0000000000000000        0.0000000000000000
      nu3 =    0.0000000000000000        0.0000000000000000        1.0000000000000000
      x:    140.87999999999997
      y:    80.030000000000001
      depth:    0.0000000000000000       m
      z:    0.0000000000000000



 station #           48     DB    X48
      original latitude:    79.9700012
      original longitude:    139.929993
      original x:    139.929993
      original y:    79.9700012
      original depth:    0.00000000      m
      horizontal distance:    6.1977709702763319E-002
      target x, y, z:    139.929993       79.9700012       0.00000000
      closest estimate found:    2.84217094E-14  m away

      receiver located in slice            0
                       in element         1248
                       in elastic domain
      at coordinates:
      xi    =   0.66083333333333383
      eta   =  -0.33583333333333348
      gamma =    1.0000000000000000
      rotation matrix:
      nu1 =    1.0000000000000000        0.0000000000000000        0.0000000000000000
      nu2 =    0.0000000000000000        1.0000000000000000        0.0000000000000000
      nu3 =    0.0000000000000000        0.0000000000000000        1.0000000000000000
      x:    139.92999999999998
      y:    79.969999999999999
      depth:    0.0000000000000000       m
      z:    0.0000000000000000



 station #           49     DB    X49
      original latitude:    79.9899979
      original longitude:    138.910004
      original x:    138.910004
      original y:    79.9899979
      original depth:    0.00000000      m
      horizontal distance:    6.0966667122289056E-002
      target x, y, z:    138.910004       79.9899979       0.00000000
      closest estimate found:    0.00000000      m away

      receiver located in slice            0
                       in element         1248
                       in elastic domain
      at coordinates:
      xi    =   0.57583333333333309
      eta   =  -0.33416666666666717
      gamma =    1.0000000000000000
      rotation matrix:
      nu1 =    1.0000000000000000        0.0000000000000000        0.0000000000000000
      nu2 =    0.0000000000000000        1.0000000000000000        0.0000000000000000
      nu3 =    0.0000000000000000        0.0000000000000000        1.0000000000000000
      x:    138.91000000000000
      y:    79.989999999999995
      depth:    0.0000000000000000       m
      z:    0.0000000000000000



 station #           50     DB    X50
      original latitude:    80.0100021
      original longitude:    137.889999
      original x:    137.889999
      original y:    80.0100021
      original depth:    0.00000000      m
      horizontal distance:    5.9955934652042582E-002
      target x, y, z:    137.889999       80.0100021       0.00000000
      closest estimate found:    0.00000000      m away

      receiver located in slice            0
                       in element         1248
                       in elastic domain
      at coordinates:
      xi    =   0.49083333333333207
      eta   =  -0.33249999999999846
      gamma =    1.0000000000000000
      rotation matrix:
      nu1 =    1.0000000000000000        0.0000000000000000        0.0000000000000000
      nu2 =    0.0000000000000000        1.0000000000000000        0.0000000000000000
      nu3 =    0.0000000000000000        0.0000000000000000        1.0000000000000000
      x:    137.88999999999999
      y:    80.010000000000005
      depth:    0.0000000000000000       m
      z:    0.0000000000000000



 station #           51     DB    X51
      original latitude:    79.9499969
      original longitude:    136.929993
      original x:    136.929993
      original y:    79.9499969
      original depth:    0.00000000      m
      horizontal distance:    5.8995563392512843E-002
      target x, y, z:    136.929993       79.9499969       0.00000000
      closest estimate found:    1.42108547E-14  m away

      receiver located in slice            0
                       in element         1248
                       in elastic domain
      at coordinates:
      xi    =   0.41083333333333377
      eta   =  -0.33750000000000091
      gamma =    1.0000000000000000
      rotation matrix:
      nu1 =    1.0000000000000000        0.0000000000000000        0.0000000000000000
      nu2 =    0.0000000000000000        1.0000000000000000        0.0000000000000000
      nu3 =    0.0000000000000000        0.0000000000000000        1.0000000000000000
      x:    136.93000000000001
      y:    79.949999999999989
      depth:    0.0000000000000000       m
      z:    0.0000000000000000



 station #           52     DB    X52
      original latitude:    79.9700012
      original longitude:    135.919998
      original x:    135.919998
      original y:    79.9700012
      original depth:    0.00000000      m
      horizontal distance:    5.7995215319886516E-002
      target x, y, z:    135.919998       79.9700012       0.00000000
      closest estimate found:    2.84217094E-14  m away

      receiver located in slice            0
                       in element         1248
                       in elastic domain
      at coordinates:
      xi    =   0.32666666666666561
      eta   =  -0.33583333333333343
      gamma =    1.0000000000000000
      rotation matrix:
      nu1 =    1.0000000000000000        0.0000000000000000        0.0000000000000000
      nu2 =    0.0000000000000000        1.0000000000000000        0.0000000000000000
      nu3 =    0.0000000000000000        0.0000000000000000        1.0000000000000000
      x:    135.92000000000002
      y:    79.969999999999999
      depth:    0.0000000000000000       m
      z:    0.0000000000000000



 station #           53     DB    X53
      original latitude:    80.0000000
      original longitude:    134.899994
      original x:    134.899994
      original y:    80.0000000
      original depth:    0.00000000      m
      horizontal distance:    5.6986525600355754E-002
      target x, y, z:    134.899994       80.0000000       0.00000000
      closest estimate found:    0.00000000      m away

      receiver located in slice            0
                       in element         1248
                       in elastic domain
      at coordinates:
      xi    =   0.24166666666666714
      eta   =  -0.33333333333333331
      gamma =    1.0000000000000000
      rotation matrix:
      nu1 =    1.0000000000000000        0.0000000000000000        0.0000000000000000
      nu2 =    0.0000000000000000        1.0000000000000000        0.0000000000000000
      nu3 =    0.0000000000000000        0.0000000000000000        1.0000000000000000
      x:    134.90000000000001
      y:    80.000000000000000
      depth:    0.0000000000000000       m
      z:    0.0000000000000000



 station #           54     DB    X54
      original latitude:    80.0199966
      original longitude:    133.889999
      original x:    133.889999
      original y:    80.0199966
      original depth:    0.00000000      m
      horizontal distance:    5.5986919900991160E-002
      target x, y, z:    133.889999       80.0199966       0.00000000
      closest estimate found:    0.00000000      m away

      receiver located in slice            0
                       in element         1248
                       in elastic domain
      at coordinates:
      xi    =   0.15749999999999886
      eta   =  -0.33166666666666700
      gamma =    1.0000000000000000
      rotation matrix:
      nu1 =    1.0000000000000000        0.0000000000000000        0.0000000000000000
      nu2 =    0.0000000000000000        1.0000000000000000        0.0000000000000000
      nu3 =    0.0000000000000000        0.0000000000000000        1.0000000000000000
      x:    133.88999999999999
      y:    80.019999999999996
      depth:    0.0000000000000000       m
      z:    0.0000000000000000



 station #           55     DB    X55
      original latitude:    79.9599991
      original longitude:    132.929993
      original x:    132.929993
      original y:    79.9599991
      original depth:    0.00000000      m
      horizontal distance:    5.5027051529225171E-002
      target x, y, z:    132.929993       79.9599991       0.00000000
      closest estimate found:    1.42108547E-14  m away

      receiver located in slice            0
                       in element         1248
                       in elastic domain
      at coordinates:
      xi    =    7.7500000000000568E-002
      eta   =  -0.33666666666666717
      gamma =    1.0000000000000000
      rotation matrix:
      nu1 =    1.0000000000000000        0.0000000000000000        0.0000000000000000
      nu2 =    0.0000000000000000        1.0000000000000000        0.0000000000000000
      nu3 =    0.0000000000000000        0.0000000000000000        1.0000000000000000
      x:    132.93000000000001
      y:    79.960000000000008
      depth:    0.0000000000000000       m
      z:    0.0000000000000000



 station #           56     DB    X56
      original latitude:    79.9800034
      original longitude:    131.910004
      original x:    131.910004
      original y:    79.9800034
      original depth:    0.00000000      m
      horizontal distance:    5.4018089562664101E-002
      target x, y, z:    131.910004       79.9800034       0.00000000
      closest estimate found:    3.17764376E-14  m away

      receiver located in slice            0
                       in element         1248
                       in elastic domain
      at coordinates:
      xi    =   -7.5000000000002842E-003
      eta   =  -0.33499999999999852
      gamma =    1.0000000000000000
      rotation matrix:
      nu1 =    1.0000000000000000        0.0000000000000000        0.0000000000000000
      nu2 =    0.0000000000000000        1.0000000000000000        0.0000000000000000
      nu3 =    0.0000000000000000        0.0000000000000000        1.0000000000000000
      x:    131.91000000000003
      y:    79.980000000000018
      depth:    0.0000000000000000       m
      z:    0.0000000000000000



 station #           57     DB    X57
      original latitude:    80.0000000
      original longitude:    130.899994
      original x:    130.899994
      original y:    80.0000000
      original depth:    0.00000000      m
      horizontal distance:    5.3019469065617789E-002
      target x, y, z:    130.899994       80.0000000       0.00000000
      closest estimate found:    0.00000000      m away

      receiver located in slice            0
                       in element         1248
                       in elastic domain
      at coordinates:
      xi    =   -9.1666666666666188E-002
      eta   =  -0.33333333333333331
      gamma =    1.0000000000000000
      rotation matrix:
      nu1 =    1.0000000000000000        0.0000000000000000        0.0000000000000000
      nu2 =    0.0000000000000000        1.0000000000000000        0.0000000000000000
      nu3 =    0.0000000000000000        0.0000000000000000        1.0000000000000000
      x:    130.90000000000001
      y:    80.000000000000000
      depth:    0.0000000000000000       m
      z:    0.0000000000000000



 station #           58     DB    X58
      original latitude:    79.9400024
      original longitude:    129.940002
      original x:    129.940002
      original y:    79.9400024
      original depth:    0.00000000      m
      horizontal distance:    5.2060047061062105E-002
      target x, y, z:    129.940002       79.9400024       0.00000000
      closest estimate found:    0.00000000      m away

      receiver located in slice            0
                       in element         1248
                       in elastic domain
      at coordinates:
      xi    =  -0.17166666666666686
      eta   =  -0.33833333333333354
      gamma =    1.0000000000000000
      rotation matrix:
      nu1 =    1.0000000000000000        0.0000000000000000        0.0000000000000000
      nu2 =    0.0000000000000000        1.0000000000000000        0.0000000000000000
      nu3 =    0.0000000000000000        0.0000000000000000        1.0000000000000000
      x:    129.94000000000000
      y:    79.939999999999998
      depth:    0.0000000000000000       m
      z:    0.0000000000000000



 station #           59     DB    X59
      original latitude:    79.9599991
      original longitude:    128.919998
      original x:    128.919998
      original y:    79.9599991
      original depth:    0.00000000      m
      horizontal distance:    5.1052178210141033E-002
      target x, y, z:    128.919998       79.9599991       0.00000000
      closest estimate found:    0.00000000      m away

      receiver located in slice            0
                       in element         1248
                       in elastic domain
      at coordinates:
      xi    =  -0.25666666666666771
      eta   =  -0.33666666666666717
      gamma =    1.0000000000000000
      rotation matrix:
      nu1 =    1.0000000000000000        0.0000000000000000        0.0000000000000000
      nu2 =    0.0000000000000000        1.0000000000000000        0.0000000000000000
      nu3 =    0.0000000000000000        0.0000000000000000        1.0000000000000000
      x:    128.91999999999999
      y:    79.959999999999994
      depth:    0.0000000000000000       m
      z:    0.0000000000000000



 station #           60     DB    X60
      original latitude:    79.9899979
      original longitude:    127.910004
      original x:    127.910004
      original y:    79.9899979
      original depth:    0.00000000      m
      horizontal distance:    5.0056113512736887E-002
      target x, y, z:    127.910004       79.9899979       0.00000000
      closest estimate found:    0.00000000      m away

      receiver located in slice            0
                       in element         1248
                       in elastic domain
      at coordinates:
      xi    =  -0.34083333333333493
      eta   =  -0.33416666666666717
      gamma =    1.0000000000000000
      rotation matrix:
      nu1 =    1.0000000000000000        0.0000000000000000        0.0000000000000000
      nu2 =    0.0000000000000000        1.0000000000000000        0.0000000000000000
      nu3 =    0.0000000000000000        0.0000000000000000        1.0000000000000000
      x:    127.91000000000000
      y:    79.989999999999995
      depth:    0.0000000000000000       m
      z:    0.0000000000000000



 station #           61     DB    X61
      original latitude:    80.0100021
      original longitude:    126.889999
      original x:    126.889999
      original y:    80.0100021
      original depth:    0.00000000      m
      horizontal distance:    4.9049302747337820E-002
      target x, y, z:    126.889999       80.0100021       0.00000000
      closest estimate found:    0.00000000      m away

      receiver located in slice            0
                       in element         1248
                       in elastic domain
      at coordinates:
      xi    =  -0.42583333333333340
      eta   =  -0.33249999999999963
      gamma =    1.0000000000000000
      rotation matrix:
      nu1 =    1.0000000000000000        0.0000000000000000        0.0000000000000000
      nu2 =    0.0000000000000000        1.0000000000000000        0.0000000000000000
      nu3 =    0.0000000000000000        0.0000000000000000        1.0000000000000000
      x:    126.89000000000000
      y:    80.010000000000005
      depth:    0.0000000000000000       m
      z:    0.0000000000000000



 station #           62     DB    X62
      original latitude:    79.9499969
      original longitude:    125.930000
      original x:    125.930000
      original y:    79.9499969
      original depth:    0.00000000      m
      horizontal distance:    4.8090711161304332E-002
      target x, y, z:    125.930000       79.9499969       0.00000000
      closest estimate found:    0.00000000      m away

      receiver located in slice            0
                       in element         1248
                       in elastic domain
      at coordinates:
      xi    =  -0.50583333333333402
      eta   =  -0.33749999999999980
      gamma =    1.0000000000000000
      rotation matrix:
      nu1 =    1.0000000000000000        0.0000000000000000        0.0000000000000000
      nu2 =    0.0000000000000000        1.0000000000000000        0.0000000000000000
      nu3 =    0.0000000000000000        0.0000000000000000        1.0000000000000000
      x:    125.93000000000001
      y:    79.950000000000003
      depth:    0.0000000000000000       m
      z:    0.0000000000000000



 station #           63     DB    X63
      original latitude:    79.9700012
      original longitude:    124.919998
      original x:    124.919998
      original y:    79.9700012
      original depth:    0.00000000      m
      horizontal distance:    4.7094638760691233E-002
      target x, y, z:    124.919998       79.9700012       0.00000000
      closest estimate found:    0.00000000      m away

      receiver located in slice            0
                       in element         1248
                       in elastic domain
      at coordinates:
      xi    =  -0.59000000000000108
      eta   =  -0.33583333333333348
      gamma =    1.0000000000000000
      rotation matrix:
      nu1 =    1.0000000000000000        0.0000000000000000        0.0000000000000000
      nu2 =    0.0000000000000000        1.0000000000000000        0.0000000000000000
      nu3 =    0.0000000000000000        0.0000000000000000        1.0000000000000000
      x:    124.92000000000000
      y:    79.969999999999999
      depth:    0.0000000000000000       m
      z:    0.0000000000000000



 station #           64     DB    X64
      original latitude:    79.9899979
      original longitude:    123.900002
      original x:    123.900002
      original y:    79.9899979
      original depth:    0.00000000      m
      horizontal distance:    4.6089298107044346E-002
      target x, y, z:    123.900002       79.9899979       0.00000000
      closest estimate found:    1.42108547E-14  m away

      receiver located in slice            0
                       in element         1248
                       in elastic domain
      at coordinates:
      xi    =  -0.67500000000000071
      eta   =  -0.33416666666666717
      gamma =    1.0000000000000000
      rotation matrix:
      nu1 =    1.0000000000000000        0.0000000000000000        0.0000000000000000
      nu2 =    0.0000000000000000        1.0000000000000000        0.0000000000000000
      nu3 =    0.0000000000000000        0.0000000000000000        1.0000000000000000
      x:    123.90000000000001
      y:    79.990000000000009
      depth:    0.0000000000000000       m
      z:    0.0000000000000000



 station #           65     DB    X65
      original latitude:    79.9300003
      original longitude:    122.940002
      original x:    122.940002
      original y:    79.9300003
      original depth:    0.00000000      m
      horizontal distance:    4.5131463526014763E-002
      target x, y, z:    122.940002       79.9300003       0.00000000
      closest estimate found:    0.00000000      m away

      receiver located in slice            0
                       in element         1248
                       in elastic domain
      at coordinates:
      xi    =  -0.75499999999999912
      eta   =  -0.33916666666666617
      gamma =    1.0000000000000000
      rotation matrix:
      nu1 =    1.0000000000000000        0.0000000000000000        0.0000000000000000
      nu2 =    0.0000000000000000        1.0000000000000000        0.0000000000000000
      nu3 =    0.0000000000000000        0.0000000000000000        1.0000000000000000
      x:    122.94000000000000
      y:    79.930000000000007
      depth:    0.0000000000000000       m
      z:    0.0000000000000000



 station #           66     DB    X66
      original latitude:    79.9499969
      original longitude:    121.930000
      original x:    121.930000
      original y:    79.9499969
      original depth:    0.00000000      m
      horizontal distance:    4.4137019609393674E-002
      target x, y, z:    121.930000       79.9499969       0.00000000
      closest estimate found:    2.00971831E-14  m away

      receiver located in slice            0
                       in element         1248
                       in elastic domain
      at coordinates:
      xi    =  -0.83916666666666639
      eta   =  -0.33750000000000041
      gamma =    1.0000000000000000
      rotation matrix:
      nu1 =    1.0000000000000000        0.0000000000000000        0.0000000000000000
      nu2 =    0.0000000000000000        1.0000000000000000        0.0000000000000000
      nu3 =    0.0000000000000000        0.0000000000000000        1.0000000000000000
      x:    121.92999999999999
      y:    79.949999999999989
      depth:    0.0000000000000000       m
      z:    0.0000000000000000



 station #           67     DB    X67
      original latitude:    79.9800034
      original longitude:    120.910004
      original x:    120.910004
      original y:    79.9800034
      original depth:    0.00000000      m
      horizontal distance:    4.3135066940947257E-002
      target x, y, z:    120.910004       79.9800034       0.00000000
      closest estimate found:    0.00000000      m away

      receiver located in slice            0
                       in element         1248
                       in elastic domain
      at coordinates:
      xi    =  -0.92416666666666614
      eta   =  -0.33499999999999919
      gamma =    1.0000000000000000
      rotation matrix:
      nu1 =    1.0000000000000000        0.0000000000000000        0.0000000000000000
      nu2 =    0.0000000000000000        1.0000000000000000        0.0000000000000000
      nu3 =    0.0000000000000000        0.0000000000000000        1.0000000000000000
      x:    120.91000000000000
      y:    79.980000000000004
      depth:    0.0000000000000000       m
      z:    0.0000000000000000



 station #           68     DB    X68
      original latitude:    80.0000000
      original longitude:    119.889999
      original x:    119.889999
      original y:    80.0000000
      original depth:    0.00000000      m
      horizontal distance:    4.2132329629395060E-002
      target x, y, z:    119.889999       80.0000000       0.00000000
      closest estimate found:    2.00971831E-14  m away

      receiver located in slice            0
                       in element         1247
                       in elastic domain
      at coordinates:
      xi    =   0.99083333333333223
      eta   =  -0.33333333333333331
      gamma =    1.0000000000000000
      rotation matrix:
      nu1 =    1.0000000000000000        0.0000000000000000        0.0000000000000000
      nu2 =    0.0000000000000000        1.0000000000000000        0.0000000000000000
      nu3 =    0.0000000000000000        0.0000000000000000        1.0000000000000000
      x:    119.88999999999999
      y:    80.000000000000014
      depth:    0.0000000000000000       m
      z:    0.0000000000000000



 station #           69     DB    X69
      original latitude:    79.9400024
      original longitude:    118.940002
      original x:    118.940002
      original y:    79.9400024
      original depth:    0.00000000      m
      horizontal distance:    4.1185780313112930E-002
[...]
                       in elastic domain
      at coordinates:
      xi    =  -0.33833333333333360
      eta   =   0.16250000000000017
      gamma =    1.0000000000000000
      rotation matrix:
      nu1 =    1.0000000000000000        0.0000000000000000        0.0000000000000000
      nu2 =    0.0000000000000000        1.0000000000000000        0.0000000000000000
      nu3 =    0.0000000000000000        0.0000000000000000        1.0000000000000000
      x:    127.94000000000000
      y:    61.950000000000003
      depth:    0.0000000000000000       m
      z:    0.0000000000000000



 station #          709     DB    X709
      original latitude:    61.9799995
      original longitude:    126.930000
      original x:    126.930000
      original y:    61.9799995
      original depth:    0.00000000      m
      horizontal distance:    4.9805389266624561E-002
      target x, y, z:    126.930000       61.9799995       0.00000000
      closest estimate found:    0.00000000      m away

      receiver located in slice            0
                       in element         1242
                       in elastic domain
      at coordinates:
      xi    =  -0.42249999999999949
      eta   =   0.16499999999999967
      gamma =    1.0000000000000000
      rotation matrix:
      nu1 =    1.0000000000000000        0.0000000000000000        0.0000000000000000
      nu2 =    0.0000000000000000        1.0000000000000000        0.0000000000000000
      nu3 =    0.0000000000000000        0.0000000000000000        1.0000000000000000
      x:    126.93000000000001
      y:    61.979999999999997
      depth:    0.0000000000000000       m
      z:    0.0000000000000000



 station #          710     DB    X710
      original latitude:    62.0000000
      original longitude:    125.910004
      original x:    125.910004
      original y:    62.0000000
      original depth:    0.00000000      m
      horizontal distance:    4.8806507762797366E-002
      target x, y, z:    125.910004       62.0000000       0.00000000
      closest estimate found:    1.42108547E-14  m away

      receiver located in slice            0
                       in element         1242
                       in elastic domain
      at coordinates:
      xi    =  -0.50750000000000028
      eta   =   0.16666666666666718
      gamma =    1.0000000000000000
      rotation matrix:
      nu1 =    1.0000000000000000        0.0000000000000000        0.0000000000000000
      nu2 =    0.0000000000000000        1.0000000000000000        0.0000000000000000
      nu3 =    0.0000000000000000        0.0000000000000000        1.0000000000000000
      x:    125.90999999999998
      y:    62.000000000000000
      depth:    0.0000000000000000       m
      z:    0.0000000000000000



 station #          711     DB    X711
      original latitude:    61.9399986
      original longitude:    124.949997
      original x:    124.949997
      original y:    61.9399986
      original depth:    0.00000000      m
      horizontal distance:    4.7885283751900230E-002
      target x, y, z:    124.949997       61.9399986       0.00000000
      closest estimate found:    1.42108547E-14  m away

      receiver located in slice            0
                       in element         1242
                       in elastic domain
      at coordinates:
      xi    =  -0.58749999999999980
      eta   =   0.16166666666666640
      gamma =    1.0000000000000000
      rotation matrix:
      nu1 =    1.0000000000000000        0.0000000000000000        0.0000000000000000
      nu2 =    0.0000000000000000        1.0000000000000000        0.0000000000000000
      nu3 =    0.0000000000000000        0.0000000000000000        1.0000000000000000
      x:    124.94999999999999
      y:    61.939999999999998
      depth:    0.0000000000000000       m
      z:    0.0000000000000000



 station #          712     DB    X712
      original latitude:    61.9599991
      original longitude:    123.940002
      original x:    123.940002
      original y:    61.9599991
      original depth:    0.00000000      m
      horizontal distance:    4.6898273955445303E-002
      target x, y, z:    123.940002       61.9599991       0.00000000
      closest estimate found:    7.10542736E-15  m away

      receiver located in slice            0
                       in element         1242
                       in elastic domain
      at coordinates:
      xi    =  -0.67166666666666686
      eta   =   0.16333333333333333
      gamma =    1.0000000000000000
      rotation matrix:
      nu1 =    1.0000000000000000        0.0000000000000000        0.0000000000000000
      nu2 =    0.0000000000000000        1.0000000000000000        0.0000000000000000
      nu3 =    0.0000000000000000        0.0000000000000000        1.0000000000000000
      x:    123.94000000000000
      y:    61.959999999999994
      depth:    0.0000000000000000       m
      z:    0.0000000000000000



 station #          713     DB    X713
      original latitude:    61.9799995
      original longitude:    122.919998
      original x:    122.919998
      original y:    61.9799995
      original depth:    0.00000000      m
      horizontal distance:    4.5902563109264383E-002
      target x, y, z:    122.919998       61.9799995       0.00000000
      closest estimate found:    7.10542736E-15  m away

      receiver located in slice            0
                       in element         1242
                       in elastic domain
      at coordinates:
      xi    =  -0.75666666666666660
      eta   =   0.16500000000000023
      gamma =    1.0000000000000000
      rotation matrix:
      nu1 =    1.0000000000000000        0.0000000000000000        0.0000000000000000
      nu2 =    0.0000000000000000        1.0000000000000000        0.0000000000000000
      nu3 =    0.0000000000000000        0.0000000000000000        1.0000000000000000
      x:    122.92000000000000
      y:    61.980000000000004
      depth:    0.0000000000000000       m
      z:    0.0000000000000000



 station #          714     DB    X714
      original latitude:    62.0000000
      original longitude:    121.910004
      original x:    121.910004
      original y:    62.0000000
      original depth:    0.00000000      m
      horizontal distance:    4.4917649092533762E-002
      target x, y, z:    121.910004       62.0000000       0.00000000
      closest estimate found:    0.00000000      m away

      receiver located in slice            0
                       in element         1242
                       in elastic domain
      at coordinates:
      xi    =  -0.84083333333333421
      eta   =   0.16666666666666641
      gamma =    1.0000000000000000
      rotation matrix:
      nu1 =    1.0000000000000000        0.0000000000000000        0.0000000000000000
      nu2 =    0.0000000000000000        1.0000000000000000        0.0000000000000000
      nu3 =    0.0000000000000000        0.0000000000000000        1.0000000000000000
      x:    121.91000000000000
      y:    62.000000000000000
      depth:    0.0000000000000000       m
      z:    0.0000000000000000



 station #          715     DB    X715
      original latitude:    61.9399986
      original longitude:    120.949997
      original x:    120.949997
      original y:    61.9399986
      original depth:    0.00000000      m
      horizontal distance:    4.4002277213798832E-002
      target x, y, z:    120.949997       61.9399986       0.00000000
      closest estimate found:    1.42108547E-14  m away

      receiver located in slice            0
                       in element         1242
                       in elastic domain
      at coordinates:
      xi    =  -0.92083333333333239
      eta   =   0.16166666666666618
      gamma =    1.0000000000000000
      rotation matrix:
      nu1 =    1.0000000000000000        0.0000000000000000        0.0000000000000000
      nu2 =    0.0000000000000000        1.0000000000000000        0.0000000000000000
      nu3 =    0.0000000000000000        0.0000000000000000        1.0000000000000000
      x:    120.95000000000002
      y:    61.939999999999998
      depth:    0.0000000000000000       m
      z:    0.0000000000000000



 station #          716     DB    X716
      original latitude:    61.9700012
      original longitude:    119.930000
      original x:    119.930000
      original y:    61.9700012
      original depth:    0.00000000      m
      horizontal distance:    4.3007865559685714E-002
      target x, y, z:    119.930000       61.9700012       0.00000000
      closest estimate found:    1.58882188E-14  m away

      receiver located in slice            0
                       in element         1241
                       in elastic domain
      at coordinates:
      xi    =   0.99416666666666720
      eta   =   0.16416666666666657
      gamma =    1.0000000000000000
      rotation matrix:
      nu1 =    1.0000000000000000        0.0000000000000000        0.0000000000000000
      nu2 =    0.0000000000000000        1.0000000000000000        0.0000000000000000
      nu3 =    0.0000000000000000        0.0000000000000000        1.0000000000000000
      x:    119.92999999999999
      y:    61.969999999999992
      depth:    0.0000000000000000       m
      z:    0.0000000000000000



 station #          717     DB    X717
      original latitude:    61.9900017
      original longitude:    118.919998
      original x:    118.919998
      original y:    61.9900017
      original depth:    0.00000000      m
      horizontal distance:    4.2026965153339348E-002
      target x, y, z:    118.919998       61.9900017       0.00000000
      closest estimate found:    2.84217094E-14  m away

      receiver located in slice            0
                       in element         1241
                       in elastic domain
      at coordinates:
      xi    =   0.91000000000000136
      eta   =   0.16583333333333350
      gamma =    1.0000000000000000
      rotation matrix:
      nu1 =    1.0000000000000000        0.0000000000000000        0.0000000000000000
      nu2 =    0.0000000000000000        1.0000000000000000        0.0000000000000000
      nu3 =    0.0000000000000000        0.0000000000000000        1.0000000000000000
      x:    118.92000000000003
      y:    61.990000000000002
      depth:    0.0000000000000000       m
      z:    0.0000000000000000



 station #          718     DB    X718
      original latitude:    61.9300003
      original longitude:    117.959999
      original x:    117.959999
      original y:    61.9300003
      original depth:    0.00000000      m
      horizontal distance:    4.1117064583941293E-002
      target x, y, z:    117.959999       61.9300003       0.00000000
      closest estimate found:    0.00000000      m away

      receiver located in slice            0
                       in element         1241
                       in elastic domain
      at coordinates:
      xi    =   0.83000000000000063
      eta   =   0.16083333333333391
      gamma =    1.0000000000000000
      rotation matrix:
      nu1 =    1.0000000000000000        0.0000000000000000        0.0000000000000000
      nu2 =    0.0000000000000000        1.0000000000000000        0.0000000000000000
      nu3 =    0.0000000000000000        0.0000000000000000        1.0000000000000000
      x:    117.95999999999999
      y:    61.930000000000000
      depth:    0.0000000000000000       m
      z:    0.0000000000000000



 station #          719     DB    X719
      original latitude:    61.9500008
      original longitude:    116.940002
      original x:    116.940002
      original y:    61.9500008
      original depth:    0.00000000      m
      horizontal distance:    4.0129891602146139E-002
      target x, y, z:    116.940002       61.9500008       0.00000000
      closest estimate found:    1.58882188E-14  m away

      receiver located in slice            0
                       in element         1241
                       in elastic domain
      at coordinates:
      xi    =   0.74499999999999966
      eta   =   0.16250000000000020
      gamma =    1.0000000000000000
      rotation matrix:
      nu1 =    1.0000000000000000        0.0000000000000000        0.0000000000000000
      nu2 =    0.0000000000000000        1.0000000000000000        0.0000000000000000
      nu3 =    0.0000000000000000        0.0000000000000000        1.0000000000000000
      x:    116.93999999999998
      y:    61.949999999999996
      depth:    0.0000000000000000       m
      z:    0.0000000000000000



 station #          720     DB    X720
      original latitude:    61.9700012
      original longitude:    115.930000
      original x:    115.930000
      original y:    61.9700012
      original depth:    0.00000000      m
      horizontal distance:    3.9154010011747203E-002
      target x, y, z:    115.930000       61.9700012       0.00000000
      closest estimate found:    0.00000000      m away

      receiver located in slice            0
                       in element         1241
                       in elastic domain
      at coordinates:
      xi    =   0.66083333333333383
      eta   =   0.16416666666666713
      gamma =    1.0000000000000000
      rotation matrix:
      nu1 =    1.0000000000000000        0.0000000000000000        0.0000000000000000
      nu2 =    0.0000000000000000        1.0000000000000000        0.0000000000000000
      nu3 =    0.0000000000000000        0.0000000000000000        1.0000000000000000
      x:    115.93000000000001
      y:    61.969999999999999
      depth:    0.0000000000000000       m
      z:    0.0000000000000000


 maximum error in location of all the receivers:    5.85928536E-14  m

 Elapsed time for receiver detection in seconds =   0.37702322006225586

 End of receiver detection - done


 Total number of samples for seismograms =         3000

 found a total of          720  receivers in all the slices


 no attenuation

 no anisotropy

 no oceans

 no gravity

 no acoustic simulation

 incorporating elastic simulation

 no poroelastic simulation

 incorporating movie simulation


 no dynamic faults
 no kinematic faults

 no gravity simulation


 Elapsed time for preparing timerun in seconds =    1.8797874450683594E-002

 time loop:
               scheme:         Newmark

            time step:    4.99999987E-05  s
 number of time steps:         3000
 total simulated time:   0.150000006      seconds
 start time:  -3.99999991E-02  seconds

 All processes are synchronized before time loop

 Starting time iteration loop...

 Time step #            5
 Time:   -3.97999994E-02  seconds
 Elapsed time in seconds =    6.1133146286010742E-002
 Elapsed time in hh:mm:ss =      0 h 00 m 00 s
 Mean elapsed time per time step in seconds =    1.22266291E-02
 Max norm displacement vector U in all slices (m) =    9.68662789E-07
 Time steps done =            5  out of         3000
 Time steps remaining =         2995
 Estimated remaining time in seconds =    36.6187553
 Estimated remaining time in hh:mm:ss =      0 h 00 m 36 s
 Estimated total run time in seconds =    36.6798859
 Estimated total run time in hh:mm:ss =      0 h 00 m 36 s
 We have done   0.166666672     % of that
 The run will finish approximately on (in local time): Mon Jan 29, 2018 21:37
 ************************************************************
 **** BEWARE: the above time estimates are not very reliable
 **** because fewer than 100 iterations have been performed
 ************************************************************

 Time step #          500
 Time:   -1.50499996E-02  seconds
 Elapsed time in seconds =    7.5106530189514160
 Elapsed time in hh:mm:ss =      0 h 00 m 07 s
 Mean elapsed time per time step in seconds =    1.50213065E-02
 Max norm displacement vector U in all slices (m) =   0.142424002
 Time steps done =          500  out of         3000
 Time steps remaining =         2500
 Estimated remaining time in seconds =    37.5532646
 Estimated remaining time in hh:mm:ss =      0 h 00 m 37 s
 Estimated total run time in seconds =    45.0639191
 Estimated total run time in hh:mm:ss =      0 h 00 m 45 s
 We have done    16.6666660     % of that
 The run will finish approximately on (in local time): Mon Jan 29, 2018 21:37

 Time step #         1000
 Time:    9.94999986E-03  seconds
 Elapsed time in seconds =    14.965996026992798
 Elapsed time in hh:mm:ss =      0 h 00 m 14 s
 Mean elapsed time per time step in seconds =    1.49659961E-02
 Max norm displacement vector U in all slices (m) =    6.66527003E-02
 Time steps done =         1000  out of         3000
 Time steps remaining =         2000
 Estimated remaining time in seconds =    29.9319916
 Estimated remaining time in hh:mm:ss =      0 h 00 m 29 s
 Estimated total run time in seconds =    44.8979874
 Estimated total run time in hh:mm:ss =      0 h 00 m 44 s
 We have done    33.3333321     % of that
 The run will finish approximately on (in local time): Mon Jan 29, 2018 21:36

 Time step #         1500
 Time:    3.49499993E-02  seconds
 Elapsed time in seconds =    22.501297950744629
 Elapsed time in hh:mm:ss =      0 h 00 m 22 s
 Mean elapsed time per time step in seconds =    1.50008649E-02
 Max norm displacement vector U in all slices (m) =    1.99788865E-02
 Time steps done =         1500  out of         3000
 Time steps remaining =         1500
 Estimated remaining time in seconds =    22.5012970
 Estimated remaining time in hh:mm:ss =      0 h 00 m 22 s
 Estimated total run time in seconds =    45.0025940
 Estimated total run time in hh:mm:ss =      0 h 00 m 45 s
 We have done    50.0000000     % of that
 The run will finish approximately on (in local time): Mon Jan 29, 2018 21:37

 Time step #         2000
 Time:    5.99500015E-02  seconds
 Elapsed time in seconds =    30.150913000106812
 Elapsed time in hh:mm:ss =      0 h 00 m 30 s
 Mean elapsed time per time step in seconds =    1.50754564E-02
 Max norm displacement vector U in all slices (m) =    1.44056715E-02
 Time steps done =         2000  out of         3000
 Time steps remaining =         1000
 Estimated remaining time in seconds =    15.0754566
 Estimated remaining time in hh:mm:ss =      0 h 00 m 15 s
 Estimated total run time in seconds =    45.2263680
 Estimated total run time in hh:mm:ss =      0 h 00 m 45 s
 We have done    66.6666641     % of that
 The run will finish approximately on (in local time): Mon Jan 29, 2018 21:37

 Time step #         2500
 Time:    8.49500000E-02  seconds
 Elapsed time in seconds =    37.718599081039429
 Elapsed time in hh:mm:ss =      0 h 00 m 37 s
 Mean elapsed time per time step in seconds =    1.50874397E-02
 Max norm displacement vector U in all slices (m) =    9.51686315E-03
 Time steps done =         2500  out of         3000
 Time steps remaining =          500
 Estimated remaining time in seconds =    7.54371977
 Estimated remaining time in hh:mm:ss =      0 h 00 m 07 s
 Estimated total run time in seconds =    45.2623177
 Estimated total run time in hh:mm:ss =      0 h 00 m 45 s
 We have done    83.3333359     % of that
 The run will finish approximately on (in local time): Mon Jan 29, 2018 21:37

 Time step #         3000
 Time:   0.109949999      seconds
 Elapsed time in seconds =    45.755228042602539
 Elapsed time in hh:mm:ss =      0 h 00 m 45 s
 Mean elapsed time per time step in seconds =    1.52517427E-02
 Max norm displacement vector U in all slices (m) =    5.81228826E-03
 Time steps done =         3000  out of         3000
 Time steps remaining =            0
 Estimated remaining time in seconds =    0.00000000
 Estimated remaining time in hh:mm:ss =      0 h 00 m 00 s
 Estimated total run time in seconds =    45.7552261
 Estimated total run time in hh:mm:ss =      0 h 00 m 45 s
 We have done    100.000000     % of that

 Time-Loop Complete. Timing info:
 Total elapsed time in seconds =    57.286626100540161
 Total elapsed time in hh:mm:ss =      0 h 00 m 57 s

 End of the simulation

