[SPECFEM3D_SESAME]$ ./decompose_mesh_SCOTCH/xdecompose_mesh_SCOTCH 4 EXAMPLES/homogeneous_halfspace/MESH-default/ EXAMPLES/homogeneous_halfspace/DATABASES-default/
 total number of nodes: 
   nnodes =        23273
 total number of spectral elements:
   nspec =                  20736
 materials:
   num_mat =            1
   defined =            1 undefined =            0
 absorbing boundaries:
   nspec2D_xmin =          576
   nspec2D_xmax =          576
   nspec2D_ymin =          576
   nspec2D_ymax =          576
   nspec2D_bottom =         1296
   nspec2D_top =         1296
 nodes valence: 
   min =            1 max =            8
   nsize =                      8 sup_neighbour =                     38
 mesh2dual: 
   max_neighbour =           26
   moho elements =            0
 partitions: 
   num =            4
 
 Databases files in directory: EXAMPLES/homogeneous_halfspace/DATABASES-default/
 finished successfully


