 **********************************************
 **** Specfem 3-D Solver - MPI version f90 ****
 **********************************************

 Running Git package version of the code: 4.0.0
 which is Git unknown
 dating unknown




 There are            2  MPI processes
 Processes are numbered from 0 to            1

 There is a total of            2  slices

  NDIM =            3

  NGLLX =            5
  NGLLY =            5
  NGLLZ =            5

 using single precision for the calculations

 smallest and largest possible floating-point numbers are:    1.17549435E-38   3.40282347E+38

 velocity model:   default

 Reading mesh databases...
   reads binary mesh files: proc***_external_mesh.bin
   from directory         : ./DATABASES_MPI

   simulation w/ acoustic    domain:  T
   simulation w/ elastic     domain:  F
   simulation w/ poroelastic domain:  F

   slice 0 has:
   number of elements acoustic   :        4000
   number of elements elastic    :           0
   number of elements poroelastic:           0
   done

 total acoustic elements    :        8000
 total elastic elements     :           0
 total poroelastic elements :           0

 Mesh resolution:

 ********
 minimum and maximum number of elements
 and points in the CUBIT + SCOTCH mesh:

 NSPEC_global_min =         4000
 NSPEC_global_max =         4000
 NSPEC_global_max / NSPEC_global_min imbalance =    1.00000000      =    0.00000000      %
 NSPEC_global_sum =         8000

 NGLOB_global_min =       269001
 NGLOB_global_max =       269001
 NGLOB_global_max / NGLOB_global_min imbalance =    1.00000000      =    0.00000000      %
 NGLOB_global_sum =       538002

 If you have elements of a single type (all acoustic, all elastic, all poroelastic, and without CPML)
 in the whole mesh, then there should be no significant imbalance in the above numbers.
 Otherwise, it is normal to have imbalance in elements and points because the domain decomposer
 compensates for the different cost of different elements by partitioning them unevenly among processes.
 ********


 ********
 Model: P   velocity min,max =    2800.00000       2800.00000
 Model: S   velocity min,max =    0.00000000       0.00000000

 Model: Poisson's ratio min,max =   0.500000000      0.500000000
 ********

 *********************************************
 *** Verification of simulation parameters ***
 *********************************************

 *** Xmin and Xmax of the model =    0.00000000       1000.00000
 *** Ymin and Ymax of the model =    0.00000000       1000.00000
 *** Zmin and Zmax of the model =   -1000.00000       0.00000000

 *** Max GLL point distance =    16.3663483
 *** Min GLL point distance =    8.63365173
 *** Max/min ratio =    1.89564610

 *** Max element size =    50.0000000
 *** Min element size =    50.0000000
 *** Max/min ratio =    1.00000000

 *** Minimum period resolved =    2.23214291E-02
 *** Maximum suggested time step =    1.54172350E-03

 *** for DT :    1.1999999999999999E-003
 *** Max stability for wave velocities =   0.389174849

 Elapsed time for checking mesh resolution in seconds =    1.8140000000000031E-003
 saving VTK files for Courant number and minimum period


 ******************************************
 There is a total of            2  slices
 ******************************************


 kd-tree:
   total data points:         4000
   theoretical   number of nodes:         7994
                tree memory size:   0.243957520     MB
   actual        number of nodes:         7999
                tree memory size:   0.244110107     MB
   maximum depth   :           14
   creation timing :    5.80012798E-04 (s)


 sources:            0

 running inverse FWI full problem, will determine sources later...


 receivers:

 Total number of receivers =            0


 running inverse FWI full problem, will determine receivers later...

 source arrays:
   number of sources is            0
   size of source array                 =    0.00000000     MB
                                        =    0.00000000     GB

 seismograms:
   seismograms written by all processes

   Total number of simulation steps (NSTEP)                       =          400
   writing out seismograms at every NTSTEP_BETWEEN_OUTPUT_SEISMOS =          400
   number of subsampling steps for seismograms                    =            1
   Total number of samples for seismograms                        =          400

   maximum number of local receivers is            0  in slice            0
   size of maximum seismogram array       =    0.00000000     MB
                                          =    0.00000000     GB

 adjoint source arrays:
   reading adjoint sources at every NTSTEP_BETWEEN_READ_ADJSRC =          400
   maximum number of local adjoint sources is            0  in slice            0
   size of maximum adjoint source array =    0.00000000     MB
                                        =    0.00000000     GB


 Total number of samples for seismograms =          400


 Simulation setup:

 incorporating acoustic simulation
   no elastic simulation
   no poroelastic simulation

   no attenuation
   no anisotropy
   no oceans
   no gravity
   no movie simulation


 preparing mass matrices
 preparing constants
 preparing wavefields
 preparing fault simulation
   no dynamic faults
   no kinematic faults
   no fault simulation
 preparing gravity
   no gravity simulation
 preparing Stacey absorbing boundaries
 preparing optimized arrays
   number of regular shaped elements  :         4000
   number of irregular shaped elements:            0
   fused array done
   bandwidth test (STREAM TRIAD):
      memory accesses =    9.23541641     MB
      timing  min/max =    2.28000004E-04 s /    2.49000004E-04 s
      timing      avg =    2.33800005E-04 s
      bandwidth       =    38.5755386     GB/s


 Elapsed time for preparing timerun in seconds =    5.4680000000000006E-003

 ************
  time loop
 ************
               scheme:         Newmark

            time step:    1.20000006E-03  s
 number of time steps:          400
 total simulated time:   0.479999989      seconds
 start time:  -0.00000000      seconds


 ********
 PNM image:
   type: vp model
   image points:         6561
   image xmin/xmax:    0.00000000     /   1000.00000
   image zmin/zmax:   -1000.00000     /   0.00000000
   pixel numbers:          640  x          640
   pixel sizes  :    1.56250000      x    1.56250000
 ********

 **********************************
 Inverse problem for model - event:            1
 **********************************

 getting stations from: DATA/STATIONS


 there are          486  stations in file DATA/STATIONS
 saving          486  stations inside the model in file DATA/STATIONS_FILTERED
 excluding            0  stations located outside the model


 ********************
  locating receivers
 ********************

 reading receiver information from DATA/STATIONS_FILTERED file


 station #            1     DB    A1
      original latitude:    100.000000
      original longitude:    100.000000
      original x:    100.000000
      original y:    100.000000
      original depth:    10.0000000      m
      horizontal distance:   0.140007138
      target x, y, z:    100.000000       100.000000      -10.0000000
      closest estimate found:    0.00000000      m away

      receiver located in slice            0
                       in element         3843
                       in acoustic domain
      at coordinates:
      xi    =   -1.0000000000000000
      eta   =   -1.0000000000000000
      gamma =   0.59999999999999998
      rotation matrix:
      nu1 =    1.00000000       0.00000000       0.00000000
      nu2 =    0.00000000       1.00000000       0.00000000
      nu3 =    0.00000000       0.00000000       1.00000000
      x:    100.00000000000000
      y:    100.00000000000000
      depth:    10.000000000000000       m
      z:   -10.000000000000000



 station #            2     DB    A2
      original latitude:    100.000000
      original longitude:    200.000000
      original x:    200.000000
      original y:    100.000000
      original depth:    10.0000000      m
      horizontal distance:   0.222265601
      target x, y, z:    200.000000       100.000000      -10.0000000
      closest estimate found:    0.00000000      m away

      receiver located in slice            0
                       in element         3844
                       in acoustic domain
      at coordinates:
      xi    =    1.0000000000000000
      eta   =   -1.0000000000000000
      gamma =   0.59999999999999998
      rotation matrix:
      nu1 =    1.00000000       0.00000000       0.00000000
      nu2 =    0.00000000       1.00000000       0.00000000
      nu3 =    0.00000000       0.00000000       1.00000000
      x:    200.00000000000000
      y:    100.00000000000000
      depth:    10.000000000000000       m
      z:   -10.000000000000000



 station #            3     DB    A3
      original latitude:    100.000000
      original longitude:    300.000000
      original x:    300.000000
      original y:    100.000000
      original depth:    10.0000000      m
      horizontal distance:   0.314963490
      target x, y, z:    300.000000       100.000000      -10.0000000
      closest estimate found:    0.00000000      m away

      receiver located in slice            0
                       in element         3846
                       in acoustic domain
      at coordinates:
      xi    =    1.0000000000000000
      eta   =   -1.0000000000000000
      gamma =   0.59999999999999998
      rotation matrix:
      nu1 =    1.00000000       0.00000000       0.00000000
      nu2 =    0.00000000       1.00000000       0.00000000
      nu3 =    0.00000000       0.00000000       1.00000000
      x:    300.00000000000000
      y:    100.00000000000000
      depth:    10.000000000000000       m
      z:   -10.000000000000000



 station #            4     DB    A4
      original latitude:    100.000000
      original longitude:    400.000000
      original x:    400.000000
      original y:    100.000000
      original depth:    10.0000000      m
      horizontal distance:   0.411098540
      target x, y, z:    400.000000       100.000000      -10.0000000
      closest estimate found:    0.00000000      m away

      receiver located in slice            0
                       in element         3849
                       in acoustic domain
      at coordinates:
      xi    =   -1.0000000000000000
      eta   =   -1.0000000000000000
      gamma =   0.59999999999999998
      rotation matrix:
      nu1 =    1.00000000       0.00000000       0.00000000
      nu2 =    0.00000000       1.00000000       0.00000000
      nu3 =    0.00000000       0.00000000       1.00000000
      x:    400.00000000000000
      y:    100.00000000000000
      depth:    10.000000000000000       m
      z:   -10.000000000000000



 station #            5     DB    A5
      original latitude:    100.000000
      original longitude:    500.000000
      original x:    500.000000
      original y:    100.000000
      original depth:    10.0000000      m
      horizontal distance:   0.508725882
      target x, y, z:    500.000000       100.000000      -10.0000000
      closest estimate found:    0.00000000      m away

      receiver located in slice            0
                       in element         3850
                       in acoustic domain
      at coordinates:
      xi    =    1.0000000000000000
      eta   =   -1.0000000000000000
      gamma =   0.59999999999999998
      rotation matrix:
      nu1 =    1.00000000       0.00000000       0.00000000
      nu2 =    0.00000000       1.00000000       0.00000000
      nu3 =    0.00000000       0.00000000       1.00000000
      x:    500.00000000000000
      y:    100.00000000000000
      depth:    10.000000000000000       m
      z:   -10.000000000000000



 station #            6     DB    A6
      original latitude:    100.000000
      original longitude:    600.000000
      original x:    600.000000
      original y:    100.000000
      original depth:    10.0000000      m
      horizontal distance:   0.607125998
      target x, y, z:    600.000000       100.000000      -10.0000000
      closest estimate found:    0.00000000      m away

      receiver located in slice            0
                       in element         3853
                       in acoustic domain
      at coordinates:
      xi    =   -1.0000000000000000
      eta   =   -1.0000000000000000
      gamma =   0.59999999999999998
      rotation matrix:
      nu1 =    1.00000000       0.00000000       0.00000000
      nu2 =    0.00000000       1.00000000       0.00000000
      nu3 =    0.00000000       0.00000000       1.00000000
      x:    600.00000000000000
      y:    100.00000000000000
      depth:    10.000000000000000       m
      z:   -10.000000000000000



 station #            7     DB    A7
      original latitude:    100.000000
      original longitude:    700.000000
      original x:    700.000000
      original y:    100.000000
      original depth:    10.0000000      m
      horizontal distance:   0.705975950
      target x, y, z:    700.000000       100.000000      -10.0000000
      closest estimate found:    0.00000000      m away

      receiver located in slice            0
                       in element         3854
                       in acoustic domain
      at coordinates:
      xi    =    1.0000000000000000
      eta   =   -1.0000000000000000
      gamma =   0.59999999999999998
      rotation matrix:
      nu1 =    1.00000000       0.00000000       0.00000000
      nu2 =    0.00000000       1.00000000       0.00000000
      nu3 =    0.00000000       0.00000000       1.00000000
      x:    700.00000000000000
      y:    100.00000000000000
      depth:    10.000000000000000       m
      z:   -10.000000000000000



 station #            8     DB    A8
      original latitude:    100.000000
      original longitude:    800.000000
      original x:    800.000000
      original y:    100.000000
      original depth:    10.0000000      m
      horizontal distance:   0.805109918
      target x, y, z:    800.000000       100.000000      -10.0000000
      closest estimate found:    0.00000000      m away

      receiver located in slice            0
                       in element         3856
                       in acoustic domain
      at coordinates:
      xi    =    1.0000000000000000
      eta   =   -1.0000000000000000
      gamma =   0.59999999999999998
      rotation matrix:
      nu1 =    1.00000000       0.00000000       0.00000000
      nu2 =    0.00000000       1.00000000       0.00000000
      nu3 =    0.00000000       0.00000000       1.00000000
      x:    800.00000000000000
      y:    100.00000000000000
      depth:    10.000000000000000       m
      z:   -10.000000000000000



 station #            9     DB    A9
      original latitude:    100.000000
      original longitude:    900.000000
      original x:    900.000000
      original y:    100.000000
      original depth:    10.0000000      m
      horizontal distance:   0.904434621
      target x, y, z:    900.000000       100.000000      -10.0000000
      closest estimate found:    0.00000000      m away

      receiver located in slice            0
                       in element         3859
                       in acoustic domain
      at coordinates:
      xi    =   -1.0000000000000000
      eta   =   -1.0000000000000000
      gamma =   0.59999999999999998
      rotation matrix:
      nu1 =    1.00000000       0.00000000       0.00000000
      nu2 =    0.00000000       1.00000000       0.00000000
      nu3 =    0.00000000       0.00000000       1.00000000
      x:    900.00000000000000
      y:    100.00000000000000
      depth:    10.000000000000000       m
      z:   -10.000000000000000



 station #           10     DB    A10
      original latitude:    200.000000
      original longitude:    100.000000
      original x:    100.000000
      original y:    200.000000
      original depth:    10.0000000      m
      horizontal distance:   0.222265601
      target x, y, z:    100.000000       200.000000      -10.0000000
      closest estimate found:    0.00000000      m away

      receiver located in slice            0
                       in element         3863
                       in acoustic domain
      at coordinates:
      xi    =   -1.0000000000000000
      eta   =    1.0000000000000000
      gamma =   0.59999999999999998
      rotation matrix:
      nu1 =    1.00000000       0.00000000       0.00000000
      nu2 =    0.00000000       1.00000000       0.00000000
      nu3 =    0.00000000       0.00000000       1.00000000
      x:    100.00000000000000
      y:    200.00000000000000
      depth:    10.000000000000000       m
      z:   -10.000000000000000



 station #           11     DB    A11
      original latitude:    200.000000
      original longitude:    200.000000
      original x:    200.000000
      original y:    200.000000
      original depth:    10.0000000      m
      horizontal distance:   0.281428486
      target x, y, z:    200.000000       200.000000      -10.0000000
      closest estimate found:    0.00000000      m away

      receiver located in slice            0
                       in element         3864
                       in acoustic domain
      at coordinates:
      xi    =    1.0000000000000000
      eta   =    1.0000000000000000
      gamma =   0.59999999999999998
      rotation matrix:
      nu1 =    1.00000000       0.00000000       0.00000000
      nu2 =    0.00000000       1.00000000       0.00000000
      nu3 =    0.00000000       0.00000000       1.00000000
      x:    200.00000000000000
      y:    200.00000000000000
      depth:    10.000000000000000       m
      z:   -10.000000000000000



 station #           12     DB    A12
      original latitude:    200.000000
      original longitude:    300.000000
      original x:    300.000000
      original y:    200.000000
      original depth:    10.0000000      m
      horizontal distance:   0.359168470
      target x, y, z:    300.000000       200.000000      -10.0000000
      closest estimate found:    0.00000000      m away

      receiver located in slice            0
                       in element         3866
                       in acoustic domain
      at coordinates:
      xi    =    1.0000000000000000
      eta   =    1.0000000000000000
      gamma =   0.59999999999999998
      rotation matrix:
      nu1 =    1.00000000       0.00000000       0.00000000
      nu2 =    0.00000000       1.00000000       0.00000000
      nu3 =    0.00000000       0.00000000       1.00000000
      x:    300.00000000000000
      y:    200.00000000000000
      depth:    10.000000000000000       m
      z:   -10.000000000000000



 station #           13     DB    A13
      original latitude:    200.000000
      original longitude:    400.000000
      original x:    400.000000
      original y:    200.000000
      original depth:    10.0000000      m
      horizontal distance:   0.445872188
      target x, y, z:    400.000000       200.000000      -10.0000000
      closest estimate found:    0.00000000      m away

      receiver located in slice            0
                       in element         3869
                       in acoustic domain
      at coordinates:
      xi    =   -1.0000000000000000
      eta   =    1.0000000000000000
      gamma =   0.59999999999999998
      rotation matrix:
      nu1 =    1.00000000       0.00000000       0.00000000
      nu2 =    0.00000000       1.00000000       0.00000000
      nu3 =    0.00000000       0.00000000       1.00000000
      x:    400.00000000000000
      y:    200.00000000000000
      depth:    10.000000000000000       m
      z:   -10.000000000000000



 station #           14     DB    A14
      original latitude:    200.000000
      original longitude:    500.000000
      original x:    500.000000
      original y:    200.000000
      original depth:    10.0000000      m
      horizontal distance:   0.537216902
      target x, y, z:    500.000000       200.000000      -10.0000000
      closest estimate found:    0.00000000      m away

      receiver located in slice            0
                       in element         3870
                       in acoustic domain
      at coordinates:
      xi    =    1.0000000000000000
      eta   =    1.0000000000000000
      gamma =   0.59999999999999998
      rotation matrix:
      nu1 =    1.00000000       0.00000000       0.00000000
      nu2 =    0.00000000       1.00000000       0.00000000
      nu3 =    0.00000000       0.00000000       1.00000000
      x:    500.00000000000000
      y:    200.00000000000000
      depth:    10.000000000000000       m
      z:   -10.000000000000000



 station #           15     DB    A15
      original latitude:    200.000000
      original longitude:    600.000000
      original x:    600.000000
      original y:    200.000000
      original depth:    10.0000000      m
      horizontal distance:   0.631190956
      target x, y, z:    600.000000       200.000000      -10.0000000
      closest estimate found:    0.00000000      m away

      receiver located in slice            0
                       in element         3873
                       in acoustic domain
      at coordinates:
      xi    =   -1.0000000000000000
      eta   =    1.0000000000000000
      gamma =   0.59999999999999998
      rotation matrix:
      nu1 =    1.00000000       0.00000000       0.00000000
      nu2 =    0.00000000       1.00000000       0.00000000
      nu3 =    0.00000000       0.00000000       1.00000000
      x:    600.00000000000000
      y:    200.00000000000000
      depth:    10.000000000000000       m
      z:   -10.000000000000000



 station #           16     DB    A16
      original latitude:    200.000000
      original longitude:    700.000000
      original x:    700.000000
      original y:    200.000000
      original depth:    10.0000000      m
      horizontal distance:   0.726775050
      target x, y, z:    700.000000       200.000000      -10.0000000
      closest estimate found:    0.00000000      m away

      receiver located in slice            0
                       in element         3874
                       in acoustic domain
      at coordinates:
      xi    =    1.0000000000000000
      eta   =    1.0000000000000000
      gamma =   0.59999999999999998
      rotation matrix:
      nu1 =    1.00000000       0.00000000       0.00000000
      nu2 =    0.00000000       1.00000000       0.00000000
      nu3 =    0.00000000       0.00000000       1.00000000
      x:    700.00000000000000
      y:    200.00000000000000
      depth:    10.000000000000000       m
      z:   -10.000000000000000



 station #           17     DB    A17
      original latitude:    200.000000
      original longitude:    800.000000
      original x:    800.000000
      original y:    200.000000
      original depth:    10.0000000      m
      horizontal distance:   0.823408782
      target x, y, z:    800.000000       200.000000      -10.0000000
      closest estimate found:    0.00000000      m away

      receiver located in slice            0
                       in element         3876
                       in acoustic domain
      at coordinates:
      xi    =    1.0000000000000000
      eta   =    1.0000000000000000
      gamma =   0.59999999999999998
      rotation matrix:
      nu1 =    1.00000000       0.00000000       0.00000000
      nu2 =    0.00000000       1.00000000       0.00000000
      nu3 =    0.00000000       0.00000000       1.00000000
      x:    800.00000000000000
      y:    200.00000000000000
      depth:    10.000000000000000       m
      z:   -10.000000000000000



 station #           18     DB    A18
      original latitude:    200.000000
      original longitude:    900.000000
      original x:    900.000000
      original y:    200.000000
      original depth:    10.0000000      m
      horizontal distance:   0.920761645
      target x, y, z:    900.000000       200.000000      -10.0000000
      closest estimate found:    0.00000000      m away

      receiver located in slice            0
                       in element         3879
                       in acoustic domain
      at coordinates:
      xi    =   -1.0000000000000000
      eta   =    1.0000000000000000
      gamma =   0.59999999999999998
      rotation matrix:
      nu1 =    1.00000000       0.00000000       0.00000000
      nu2 =    0.00000000       1.00000000       0.00000000
      nu3 =    0.00000000       0.00000000       1.00000000
      x:    900.00000000000000
      y:    200.00000000000000
      depth:    10.000000000000000       m
      z:   -10.000000000000000



 station #           19     DB    A19
      original latitude:    300.000000
      original longitude:    100.000000
      original x:    100.000000
      original y:    300.000000
      original depth:    10.0000000      m
      horizontal distance:   0.314963490
      target x, y, z:    100.000000       300.000000      -10.0000000
      closest estimate found:    0.00000000      m away

      receiver located in slice            0
                       in element         3903
                       in acoustic domain
      at coordinates:
      xi    =   -1.0000000000000000
      eta   =    1.0000000000000000
      gamma =   0.59999999999999998
      rotation matrix:
      nu1 =    1.00000000       0.00000000       0.00000000
      nu2 =    0.00000000       1.00000000       0.00000000
      nu3 =    0.00000000       0.00000000       1.00000000
      x:    100.00000000000000
      y:    300.00000000000000
      depth:    10.000000000000000       m
      z:   -10.000000000000000



 station #           20     DB    A20
      original latitude:    300.000000
      original longitude:    200.000000
      original x:    200.000000
      original y:    300.000000
      original depth:    10.0000000      m
      horizontal distance:   0.359168470
      target x, y, z:    200.000000       300.000000      -10.0000000
      closest estimate found:    0.00000000      m away

      receiver located in slice            0
                       in element         3904
                       in acoustic domain
      at coordinates:
      xi    =    1.0000000000000000
      eta   =    1.0000000000000000
      gamma =   0.59999999999999998
      rotation matrix:
      nu1 =    1.00000000       0.00000000       0.00000000
      nu2 =    0.00000000       1.00000000       0.00000000
      nu3 =    0.00000000       0.00000000       1.00000000
      x:    200.00000000000000
      y:    300.00000000000000
      depth:    10.000000000000000       m
      z:   -10.000000000000000



 station #           21     DB    A21
      original latitude:    300.000000
      original longitude:    300.000000
      original x:    300.000000
      original y:    300.000000
      original depth:    10.0000000      m
      horizontal distance:   0.422849864
      target x, y, z:    300.000000       300.000000      -10.0000000
      closest estimate found:    0.00000000      m away

      receiver located in slice            0
                       in element         3906
                       in acoustic domain
      at coordinates:
      xi    =    1.0000000000000000
      eta   =    1.0000000000000000
      gamma =   0.59999999999999998
      rotation matrix:
      nu1 =    1.00000000       0.00000000       0.00000000
      nu2 =    0.00000000       1.00000000       0.00000000
      nu3 =    0.00000000       0.00000000       1.00000000
      x:    300.00000000000000
      y:    300.00000000000000
      depth:    10.000000000000000       m
      z:   -10.000000000000000



 station #           22     DB    A22
      original latitude:    300.000000
      original longitude:    400.000000
      original x:    400.000000
      original y:    300.000000
      original depth:    10.0000000      m
      horizontal distance:   0.498600036
      target x, y, z:    400.000000       300.000000      -10.0000000
      closest estimate found:    0.00000000      m away

      receiver located in slice            0
                       in element         3909
                       in acoustic domain
      at coordinates:
      xi    =   -1.0000000000000000
      eta   =    1.0000000000000000
      gamma =   0.59999999999999998
      rotation matrix:
      nu1 =    1.00000000       0.00000000       0.00000000
      nu2 =    0.00000000       1.00000000       0.00000000
      nu3 =    0.00000000       0.00000000       1.00000000
      x:    400.00000000000000
      y:    300.00000000000000
      depth:    10.000000000000000       m
      z:   -10.000000000000000



 station #           23     DB    A23
      original latitude:    300.000000
      original longitude:    500.000000
      original x:    500.000000
      original y:    300.000000
      original depth:    10.0000000      m
      horizontal distance:   0.581723273
      target x, y, z:    500.000000       300.000000      -10.0000000
      closest estimate found:    0.00000000      m away

      receiver located in slice            0
                       in element         3910
                       in acoustic domain
      at coordinates:
      xi    =    1.0000000000000000
      eta   =    1.0000000000000000
      gamma =   0.59999999999999998
      rotation matrix:
      nu1 =    1.00000000       0.00000000       0.00000000
      nu2 =    0.00000000       1.00000000       0.00000000
      nu3 =    0.00000000       0.00000000       1.00000000
      x:    500.00000000000000
      y:    300.00000000000000
      depth:    10.000000000000000       m
      z:   -10.000000000000000



 station #           24     DB    A24
      original latitude:    300.000000
      original longitude:    600.000000
      original x:    600.000000
      original y:    300.000000
      original depth:    10.0000000      m
      horizontal distance:   0.669478893
      target x, y, z:    600.000000       300.000000      -10.0000000
      closest estimate found:    0.00000000      m away

      receiver located in slice            0
                       in element         3913
                       in acoustic domain
      at coordinates:
      xi    =   -1.0000000000000000
      eta   =    1.0000000000000000
      gamma =   0.59999999999999998
      rotation matrix:
      nu1 =    1.00000000       0.00000000       0.00000000
      nu2 =    0.00000000       1.00000000       0.00000000
      nu3 =    0.00000000       0.00000000       1.00000000
      x:    600.00000000000000
      y:    300.00000000000000
      depth:    10.000000000000000       m
      z:   -10.000000000000000



 station #           25     DB    A25
      original latitude:    300.000000
      original longitude:    700.000000
      original x:    700.000000
      original y:    300.000000
      original depth:    10.0000000      m
      horizontal distance:   0.760264456
      target x, y, z:    700.000000       300.000000      -10.0000000
      closest estimate found:    0.00000000      m away

      receiver located in slice            0
                       in element         3914
                       in acoustic domain
      at coordinates:
      xi    =    1.0000000000000000
      eta   =    1.0000000000000000
      gamma =   0.59999999999999998
      rotation matrix:
      nu1 =    1.00000000       0.00000000       0.00000000
      nu2 =    0.00000000       1.00000000       0.00000000
      nu3 =    0.00000000       0.00000000       1.00000000
      x:    700.00000000000000
      y:    300.00000000000000
      depth:    10.000000000000000       m
      z:   -10.000000000000000



 station #           26     DB    A26
      original latitude:    300.000000
      original longitude:    800.000000
      original x:    800.000000
      original y:    300.000000
      original depth:    10.0000000      m
      horizontal distance:   0.853113115
      target x, y, z:    800.000000       300.000000      -10.0000000
      closest estimate found:    0.00000000      m away

      receiver located in slice            0
                       in element         3916
                       in acoustic domain
      at coordinates:
      xi    =    1.0000000000000000
      eta   =    1.0000000000000000
      gamma =   0.59999999999999998
      rotation matrix:
      nu1 =    1.00000000       0.00000000       0.00000000
      nu2 =    0.00000000       1.00000000       0.00000000
      nu3 =    0.00000000       0.00000000       1.00000000
      x:    800.00000000000000
      y:    300.00000000000000
      depth:    10.000000000000000       m
      z:   -10.000000000000000



 station #           27     DB    A27
      original latitude:    300.000000
      original longitude:    900.000000
      original x:    900.000000
      original y:    300.000000
      original depth:    10.0000000      m
      horizontal distance:   0.947418571
      target x, y, z:    900.000000       300.000000      -10.0000000
      closest estimate found:    0.00000000      m away

      receiver located in slice            0
                       in element         3919
                       in acoustic domain
      at coordinates:
      xi    =   -1.0000000000000000
      eta   =    1.0000000000000000
      gamma =   0.59999999999999998
      rotation matrix:
      nu1 =    1.00000000       0.00000000       0.00000000
      nu2 =    0.00000000       1.00000000       0.00000000
      nu3 =    0.00000000       0.00000000       1.00000000
      x:    900.00000000000000
      y:    300.00000000000000
      depth:    10.000000000000000       m
      z:   -10.000000000000000



 station #           28     DB    A28
      original latitude:    400.000000
      original longitude:    100.000000
      original x:    100.000000
      original y:    400.000000
      original depth:    10.0000000      m
      horizontal distance:   0.411098540
      target x, y, z:    100.000000       400.000000      -10.0000000
      closest estimate found:    0.00000000      m away

      receiver located in slice            0
                       in element         3963
                       in acoustic domain
      at coordinates:
      xi    =   -1.0000000000000000
      eta   =   -1.0000000000000000
      gamma =   0.59999999999999998
      rotation matrix:
      nu1 =    1.00000000       0.00000000       0.00000000
      nu2 =    0.00000000       1.00000000       0.00000000
      nu3 =    0.00000000       0.00000000       1.00000000
      x:    100.00000000000000
      y:    400.00000000000000
      depth:    10.000000000000000       m
      z:   -10.000000000000000



 station #           29     DB    A29
      original latitude:    400.000000
      original longitude:    200.000000
      original x:    200.000000
      original y:    400.000000
      original depth:    10.0000000      m
      horizontal distance:   0.445872188
      target x, y, z:    200.000000       400.000000      -10.0000000
      closest estimate found:    0.00000000      m away

      receiver located in slice            0
                       in element         3964
                       in acoustic domain
      at coordinates:
      xi    =    1.0000000000000000
      eta   =   -1.0000000000000000
      gamma =   0.59999999999999998
      rotation matrix:
      nu1 =    1.00000000       0.00000000       0.00000000
      nu2 =    0.00000000       1.00000000       0.00000000
      nu3 =    0.00000000       0.00000000       1.00000000
      x:    200.00000000000000
      y:    400.00000000000000
      depth:    10.000000000000000       m
      z:   -10.000000000000000



 station #           30     DB    A30
      original latitude:    400.000000
      original longitude:    300.000000
      original x:    300.000000
      original y:    400.000000
      original depth:    10.0000000      m
      horizontal distance:   0.498600036
      target x, y, z:    300.000000       400.000000      -10.0000000
      closest estimate found:    0.00000000      m away

      receiver located in slice            0
                       in element         3966
                       in acoustic domain
      at coordinates:
      xi    =    1.0000000000000000
      eta   =   -1.0000000000000000
      gamma =   0.59999999999999998
      rotation matrix:
      nu1 =    1.00000000       0.00000000       0.00000000
      nu2 =    0.00000000       1.00000000       0.00000000
      nu3 =    0.00000000       0.00000000       1.00000000
      x:    300.00000000000000
      y:    400.00000000000000
      depth:    10.000000000000000       m
      z:   -10.000000000000000



 station #           31     DB    A31
      original latitude:    400.000000
      original longitude:    400.000000
      original x:    400.000000
      original y:    400.000000
      original depth:    10.0000000      m
      horizontal distance:   0.564271212
      target x, y, z:    400.000000       400.000000      -10.0000000
      closest estimate found:    0.00000000      m away

      receiver located in slice            0
                       in element         3969
                       in acoustic domain
      at coordinates:
      xi    =   -1.0000000000000000
      eta   =   -1.0000000000000000
      gamma =   0.59999999999999998
      rotation matrix:
      nu1 =    1.00000000       0.00000000       0.00000000
      nu2 =    0.00000000       1.00000000       0.00000000
      nu3 =    0.00000000       0.00000000       1.00000000
      x:    400.00000000000000
      y:    400.00000000000000
      depth:    10.000000000000000       m
      z:   -10.000000000000000



 station #           32     DB    A32
      original latitude:    400.000000
      original longitude:    500.000000
      original x:    500.000000
      original y:    400.000000
      original depth:    10.0000000      m
      horizontal distance:   0.638906896
      target x, y, z:    500.000000       400.000000      -10.0000000
      closest estimate found:    0.00000000      m away

      receiver located in slice            0
                       in element         3970
                       in acoustic domain
      at coordinates:
      xi    =    1.0000000000000000
      eta   =   -1.0000000000000000
      gamma =   0.59999999999999998
      rotation matrix:
      nu1 =    1.00000000       0.00000000       0.00000000
      nu2 =    0.00000000       1.00000000       0.00000000
      nu3 =    0.00000000       0.00000000       1.00000000
      x:    500.00000000000000
      y:    400.00000000000000
      depth:    10.000000000000000       m
      z:   -10.000000000000000



 station #           33     DB    A33
      original latitude:    400.000000
      original longitude:    600.000000
      original x:    600.000000
      original y:    400.000000
      original depth:    10.0000000      m
      horizontal distance:   0.719723582
      target x, y, z:    600.000000       400.000000      -10.0000000
      closest estimate found:    0.00000000      m away

      receiver located in slice            0
                       in element         3973
                       in acoustic domain
      at coordinates:
      xi    =   -1.0000000000000000
      eta   =   -1.0000000000000000
      gamma =   0.59999999999999998
      rotation matrix:
      nu1 =    1.00000000       0.00000000       0.00000000
      nu2 =    0.00000000       1.00000000       0.00000000
      nu3 =    0.00000000       0.00000000       1.00000000
      x:    600.00000000000000
      y:    400.00000000000000
      depth:    10.000000000000000       m
      z:   -10.000000000000000



 station #           34     DB    A34
      original latitude:    400.000000
      original longitude:    700.000000
      original x:    700.000000
      original y:    400.000000
      original depth:    10.0000000      m
      horizontal distance:   0.804861486
      target x, y, z:    700.000000       400.000000      -10.0000000
      closest estimate found:    0.00000000      m away

      receiver located in slice            0
                       in element         3974
                       in acoustic domain
      at coordinates:
      xi    =    1.0000000000000000
      eta   =   -1.0000000000000000
      gamma =   0.59999999999999998
      rotation matrix:
      nu1 =    1.00000000       0.00000000       0.00000000
      nu2 =    0.00000000       1.00000000       0.00000000
      nu3 =    0.00000000       0.00000000       1.00000000
      x:    700.00000000000000
      y:    400.00000000000000
      depth:    10.000000000000000       m
      z:   -10.000000000000000



 station #           35     DB    A35
      original latitude:    400.000000
      original longitude:    800.000000
      original x:    800.000000
      original y:    400.000000
      original depth:    10.0000000      m
      horizontal distance:   0.893085659
      target x, y, z:    800.000000       400.000000      -10.0000000
      closest estimate found:    0.00000000      m away

      receiver located in slice            0
                       in element         3976
                       in acoustic domain
      at coordinates:
      xi    =    1.0000000000000000
      eta   =   -1.0000000000000000
      gamma =   0.59999999999999998
      rotation matrix:
      nu1 =    1.00000000       0.00000000       0.00000000
      nu2 =    0.00000000       1.00000000       0.00000000
      nu3 =    0.00000000       0.00000000       1.00000000
      x:    800.00000000000000
      y:    400.00000000000000
      depth:    10.000000000000000       m
      z:   -10.000000000000000



 station #           36     DB    A36
      original latitude:    400.000000
      original longitude:    900.000000
      original x:    900.000000
      original y:    400.000000
      original depth:    10.0000000      m
      horizontal distance:   0.983565986
      target x, y, z:    900.000000       400.000000      -10.0000000
      closest estimate found:    0.00000000      m away

      receiver located in slice            0
                       in element         3979
                       in acoustic domain
      at coordinates:
      xi    =   -1.0000000000000000
      eta   =   -1.0000000000000000
      gamma =   0.59999999999999998
      rotation matrix:
      nu1 =    1.00000000       0.00000000       0.00000000
      nu2 =    0.00000000       1.00000000       0.00000000
      nu3 =    0.00000000       0.00000000       1.00000000
      x:    900.00000000000000
      y:    400.00000000000000
      depth:    10.000000000000000       m
      z:   -10.000000000000000



 station #           37     DB    A37
      original latitude:    500.000000
      original longitude:    100.000000
      original x:    100.000000
      original y:    500.000000
      original depth:    10.0000000      m
      horizontal distance:   0.508725882
      target x, y, z:    100.000000       500.000000      -10.0000000
      closest estimate found:    0.00000000      m away

      receiver located in slice            0
                       in element         3983
                       in acoustic domain
      at coordinates:
      xi    =   -1.0000000000000000
      eta   =    1.0000000000000000
      gamma =   0.59999999999999998
      rotation matrix:
      nu1 =    1.00000000       0.00000000       0.00000000
      nu2 =    0.00000000       1.00000000       0.00000000
      nu3 =    0.00000000       0.00000000       1.00000000
      x:    100.00000000000000
      y:    500.00000000000000
      depth:    10.000000000000000       m
      z:   -10.000000000000000



 station #           38     DB    A38
      original latitude:    500.000000
      original longitude:    200.000000
      original x:    200.000000
      original y:    500.000000
      original depth:    10.0000000      m
      horizontal distance:   0.537216902
      target x, y, z:    200.000000       500.000000      -10.0000000
      closest estimate found:    0.00000000      m away

      receiver located in slice            0
                       in element         3984
                       in acoustic domain
      at coordinates:
      xi    =    1.0000000000000000
      eta   =    1.0000000000000000
      gamma =   0.59999999999999998
      rotation matrix:
      nu1 =    1.00000000       0.00000000       0.00000000
      nu2 =    0.00000000       1.00000000       0.00000000
      nu3 =    0.00000000       0.00000000       1.00000000
      x:    200.00000000000000
      y:    500.00000000000000
      depth:    10.000000000000000       m
      z:   -10.000000000000000



 station #           39     DB    A39
      original latitude:    500.000000
      original longitude:    300.000000
      original x:    300.000000
      original y:    500.000000
      original depth:    10.0000000      m
      horizontal distance:   0.581723273
      target x, y, z:    300.000000       500.000000      -10.0000000
      closest estimate found:    0.00000000      m away

      receiver located in slice            0
                       in element         3986
                       in acoustic domain
      at coordinates:
      xi    =    1.0000000000000000
      eta   =    1.0000000000000000
      gamma =   0.59999999999999998
      rotation matrix:
      nu1 =    1.00000000       0.00000000       0.00000000
      nu2 =    0.00000000       1.00000000       0.00000000
      nu3 =    0.00000000       0.00000000       1.00000000
      x:    300.00000000000000
      y:    500.00000000000000
      depth:    10.000000000000000       m
      z:   -10.000000000000000



 station #           40     DB    A40
      original latitude:    500.000000
      original longitude:    400.000000
      original x:    400.000000
      original y:    500.000000
      original depth:    10.0000000      m
      horizontal distance:   0.638906896
      target x, y, z:    400.000000       500.000000      -10.0000000
      closest estimate found:    0.00000000      m away

      receiver located in slice            0
                       in element         3989
                       in acoustic domain
      at coordinates:
      xi    =   -1.0000000000000000
      eta   =    1.0000000000000000
      gamma =   0.59999999999999998
      rotation matrix:
      nu1 =    1.00000000       0.00000000       0.00000000
      nu2 =    0.00000000       1.00000000       0.00000000
      nu3 =    0.00000000       0.00000000       1.00000000
      x:    400.00000000000000
      y:    500.00000000000000
      depth:    10.000000000000000       m
      z:   -10.000000000000000



 station #           41     DB    A41
      original latitude:    500.000000
      original longitude:    500.000000
      original x:    500.000000
      original y:    500.000000
      original depth:    10.0000000      m
      horizontal distance:   0.705692589
      target x, y, z:    500.000000       500.000000      -10.0000000
      closest estimate found:    0.00000000      m away

      receiver located in slice            0
                       in element         3990
                       in acoustic domain
      at coordinates:
      xi    =    1.0000000000000000
      eta   =    1.0000000000000000
      gamma =   0.59999999999999998
      rotation matrix:
      nu1 =    1.00000000       0.00000000       0.00000000
      nu2 =    0.00000000       1.00000000       0.00000000
      nu3 =    0.00000000       0.00000000       1.00000000
      x:    500.00000000000000
      y:    500.00000000000000
      depth:    10.000000000000000       m
      z:   -10.000000000000000



 station #           42     DB    A42
      original latitude:    500.000000
      original longitude:    600.000000
      original x:    600.000000
      original y:    500.000000
      original depth:    10.0000000      m
      horizontal distance:   0.779616594
      target x, y, z:    600.000000       500.000000      -10.0000000
      closest estimate found:    0.00000000      m away

      receiver located in slice            0
                       in element         3993
                       in acoustic domain
      at coordinates:
      xi    =   -1.0000000000000000
      eta   =    1.0000000000000000
      gamma =   0.59999999999999998
      rotation matrix:
      nu1 =    1.00000000       0.00000000       0.00000000
      nu2 =    0.00000000       1.00000000       0.00000000
      nu3 =    0.00000000       0.00000000       1.00000000
      x:    600.00000000000000
      y:    500.00000000000000
      depth:    10.000000000000000       m
      z:   -10.000000000000000



 station #           43     DB    A43
      original latitude:    500.000000
      original longitude:    700.000000
      original x:    700.000000
      original y:    500.000000
      original depth:    10.0000000      m
      horizontal distance:   0.858837605
      target x, y, z:    700.000000       500.000000      -10.0000000
      closest estimate found:    0.00000000      m away

      receiver located in slice            0
                       in element         3994
                       in acoustic domain
      at coordinates:
      xi    =    1.0000000000000000
      eta   =    1.0000000000000000
      gamma =   0.59999999999999998
      rotation matrix:
      nu1 =    1.00000000       0.00000000       0.00000000
      nu2 =    0.00000000       1.00000000       0.00000000
      nu3 =    0.00000000       0.00000000       1.00000000
      x:    700.00000000000000
      y:    500.00000000000000
      depth:    10.000000000000000       m
      z:   -10.000000000000000



 station #           44     DB    A44
      original latitude:    500.000000
      original longitude:    800.000000
      original x:    800.000000
      original y:    500.000000
      original depth:    10.0000000      m
      horizontal distance:   0.942020178
      target x, y, z:    800.000000       500.000000      -10.0000000
      closest estimate found:    0.00000000      m away

      receiver located in slice            0
                       in element         3996
                       in acoustic domain
      at coordinates:
      xi    =    1.0000000000000000
      eta   =    1.0000000000000000
      gamma =   0.59999999999999998
      rotation matrix:
      nu1 =    1.00000000       0.00000000       0.00000000
      nu2 =    0.00000000       1.00000000       0.00000000
      nu3 =    0.00000000       0.00000000       1.00000000
      x:    800.00000000000000
      y:    500.00000000000000
      depth:    10.000000000000000       m
      z:   -10.000000000000000



 station #           45     DB    A45
      original latitude:    500.000000
      original longitude:    900.000000
      original x:    900.000000
      original y:    500.000000
      original depth:    10.0000000      m
      horizontal distance:    1.02820325
      target x, y, z:    900.000000       500.000000      -10.0000000
      closest estimate found:    0.00000000      m away

      receiver located in slice            0
                       in element         3999
                       in acoustic domain
      at coordinates:
      xi    =   -1.0000000000000000
      eta   =    1.0000000000000000
      gamma =   0.59999999999999998
      rotation matrix:
      nu1 =    1.00000000       0.00000000       0.00000000
      nu2 =    0.00000000       1.00000000       0.00000000
      nu3 =    0.00000000       0.00000000       1.00000000
      x:    900.00000000000000
      y:    500.00000000000000
      depth:    10.000000000000000       m
      z:   -10.000000000000000



 station #           46     DB    A46
      original latitude:    600.000000
      original longitude:    100.000000
      original x:    100.000000
      original y:    600.000000
      original depth:    10.0000000      m
      horizontal distance:   0.607125998
      target x, y, z:    100.000000       600.000000      -10.0000000
      closest estimate found:    0.00000000      m away

      receiver located in slice            1
                       in element         3843
                       in acoustic domain
      at coordinates:
      xi    =   -1.0000000000000000
      eta   =   -1.0000000000000000
      gamma =   0.59999999999999998
      rotation matrix:
      nu1 =    1.00000000       0.00000000       0.00000000
      nu2 =    0.00000000       1.00000000       0.00000000
      nu3 =    0.00000000       0.00000000       1.00000000
      x:    100.00000000000000
      y:    600.00000000000000
      depth:    10.000000000000000       m
      z:   -10.000000000000000



 station #           47     DB    A47
      original latitude:    600.000000
      original longitude:    200.000000
      original x:    200.000000
      original y:    600.000000
      original depth:    10.0000000      m
      horizontal distance:   0.631190956
      target x, y, z:    200.000000       600.000000      -10.0000000
      closest estimate found:    0.00000000      m away

      receiver located in slice            1
                       in element         3844
                       in acoustic domain
      at coordinates:
      xi    =    1.0000000000000000
      eta   =   -1.0000000000000000
      gamma =   0.59999999999999998
      rotation matrix:
      nu1 =    1.00000000       0.00000000       0.00000000
      nu2 =    0.00000000       1.00000000       0.00000000
      nu3 =    0.00000000       0.00000000       1.00000000
      x:    200.00000000000000
      y:    600.00000000000000
      depth:    10.000000000000000       m
      z:   -10.000000000000000



 station #           48     DB    A48
      original latitude:    600.000000
      original longitude:    300.000000
      original x:    300.000000
      original y:    600.000000
      original depth:    10.0000000      m
      horizontal distance:   0.669478893
      target x, y, z:    300.000000       600.000000      -10.0000000
      closest estimate found:    0.00000000      m away

      receiver located in slice            1
                       in element         3846
                       in acoustic domain
      at coordinates:
      xi    =    1.0000000000000000
      eta   =   -1.0000000000000000
      gamma =   0.59999999999999998
      rotation matrix:
      nu1 =    1.00000000       0.00000000       0.00000000
      nu2 =    0.00000000       1.00000000       0.00000000
      nu3 =    0.00000000       0.00000000       1.00000000
      x:    300.00000000000000
      y:    600.00000000000000
      depth:    10.000000000000000       m
      z:   -10.000000000000000



 station #           49     DB    A49
      original latitude:    600.000000
      original longitude:    400.000000
      original x:    400.000000
      original y:    600.000000
      original depth:    10.0000000      m
      horizontal distance:   0.719723582
      target x, y, z:    400.000000       600.000000      -10.0000000
      closest estimate found:    0.00000000      m away

      receiver located in slice            1
                       in element         3849
                       in acoustic domain
      at coordinates:
      xi    =   -1.0000000000000000
      eta   =   -1.0000000000000000
      gamma =   0.59999999999999998
      rotation matrix:
      nu1 =    1.00000000       0.00000000       0.00000000
      nu2 =    0.00000000       1.00000000       0.00000000
      nu3 =    0.00000000       0.00000000       1.00000000
      x:    400.00000000000000
      y:    600.00000000000000
      depth:    10.000000000000000       m
      z:   -10.000000000000000



 station #           50     DB    A50
      original latitude:    600.000000
      original longitude:    500.000000
      original x:    500.000000
      original y:    600.000000
      original depth:    10.0000000      m
      horizontal distance:   0.779616594
      target x, y, z:    500.000000       600.000000      -10.0000000
      closest estimate found:    0.00000000      m away

      receiver located in slice            1
                       in element         3850
                       in acoustic domain
      at coordinates:
      xi    =    1.0000000000000000
      eta   =   -1.0000000000000000
      gamma =   0.59999999999999998
      rotation matrix:
      nu1 =    1.00000000       0.00000000       0.00000000
      nu2 =    0.00000000       1.00000000       0.00000000
      nu3 =    0.00000000       0.00000000       1.00000000
      x:    500.00000000000000
      y:    600.00000000000000
      depth:    10.000000000000000       m
      z:   -10.000000000000000



 station #           51     DB    A51
      original latitude:    600.000000
      original longitude:    600.000000
      original x:    600.000000
      original y:    600.000000
      original depth:    10.0000000      m
      horizontal distance:   0.847113907
      target x, y, z:    600.000000       600.000000      -10.0000000
      closest estimate found:    0.00000000      m away

      receiver located in slice            1
                       in element         3853
                       in acoustic domain
      at coordinates:
      xi    =   -1.0000000000000000
      eta   =   -1.0000000000000000
      gamma =   0.59999999999999998
      rotation matrix:
      nu1 =    1.00000000       0.00000000       0.00000000
      nu2 =    0.00000000       1.00000000       0.00000000
      nu3 =    0.00000000       0.00000000       1.00000000
      x:    600.00000000000000
      y:    600.00000000000000
      depth:    10.000000000000000       m
      z:   -10.000000000000000



 station #           52     DB    A52
      original latitude:    600.000000
      original longitude:    700.000000
      original x:    700.000000
      original y:    600.000000
      original depth:    10.0000000      m
      horizontal distance:   0.920544386
      target x, y, z:    700.000000       600.000000      -10.0000000
      closest estimate found:    0.00000000      m away

      receiver located in slice            1
                       in element         3854
                       in acoustic domain
      at coordinates:
      xi    =    1.0000000000000000
      eta   =   -1.0000000000000000
      gamma =   0.59999999999999998
      rotation matrix:
      nu1 =    1.00000000       0.00000000       0.00000000
      nu2 =    0.00000000       1.00000000       0.00000000
      nu3 =    0.00000000       0.00000000       1.00000000
      x:    700.00000000000000
      y:    600.00000000000000
      depth:    10.000000000000000       m
      z:   -10.000000000000000



 station #           53     DB    A53
      original latitude:    600.000000
      original longitude:    800.000000
      original x:    800.000000
      original y:    600.000000
      original depth:    10.0000000      m
      horizontal distance:   0.998600006
      target x, y, z:    800.000000       600.000000      -10.0000000
      closest estimate found:    0.00000000      m away

      receiver located in slice            1
                       in element         3856
                       in acoustic domain
      at coordinates:
      xi    =    1.0000000000000000
      eta   =   -1.0000000000000000
      gamma =   0.59999999999999998
      rotation matrix:
      nu1 =    1.00000000       0.00000000       0.00000000
      nu2 =    0.00000000       1.00000000       0.00000000
      nu3 =    0.00000000       0.00000000       1.00000000
      x:    800.00000000000000
      y:    600.00000000000000
      depth:    10.000000000000000       m
      z:   -10.000000000000000



 station #           54     DB    A54
      original latitude:    600.000000
      original longitude:    900.000000
      original x:    900.000000
      original y:    600.000000
      original depth:    10.0000000      m
      horizontal distance:    1.08027864
      target x, y, z:    900.000000       600.000000      -10.0000000
      closest estimate found:    0.00000000      m away

      receiver located in slice            1
                       in element         3859
                       in acoustic domain
      at coordinates:
      xi    =   -1.0000000000000000
      eta   =   -1.0000000000000000
      gamma =   0.59999999999999998
      rotation matrix:
      nu1 =    1.00000000       0.00000000       0.00000000
      nu2 =    0.00000000       1.00000000       0.00000000
      nu3 =    0.00000000       0.00000000       1.00000000
      x:    900.00000000000000
      y:    600.00000000000000
      depth:    10.000000000000000       m
      z:   -10.000000000000000



 station #           55     DB    A55
      original latitude:    700.000000
      original longitude:    100.000000
      original x:    100.000000
      original y:    700.000000
      original depth:    10.0000000      m
      horizontal distance:   0.705975950
      target x, y, z:    100.000000       700.000000      -10.0000000
      closest estimate found:    0.00000000      m away

      receiver located in slice            1
                       in element         3863
                       in acoustic domain
      at coordinates:
      xi    =   -1.0000000000000000
      eta   =    1.0000000000000000
      gamma =   0.59999999999999998
      rotation matrix:
      nu1 =    1.00000000       0.00000000       0.00000000
      nu2 =    0.00000000       1.00000000       0.00000000
      nu3 =    0.00000000       0.00000000       1.00000000
      x:    100.00000000000000
      y:    700.00000000000000
      depth:    10.000000000000000       m
      z:   -10.000000000000000



 station #           56     DB    A56
      original latitude:    700.000000
      original longitude:    200.000000
      original x:    200.000000
      original y:    700.000000
      original depth:    10.0000000      m
      horizontal distance:   0.726775050
      target x, y, z:    200.000000       700.000000      -10.0000000
      closest estimate found:    0.00000000      m away

      receiver located in slice            1
                       in element         3864
                       in acoustic domain
      at coordinates:
      xi    =    1.0000000000000000
      eta   =    1.0000000000000000
      gamma =   0.59999999999999998
      rotation matrix:
      nu1 =    1.00000000       0.00000000       0.00000000
      nu2 =    0.00000000       1.00000000       0.00000000
      nu3 =    0.00000000       0.00000000       1.00000000
      x:    200.00000000000000
      y:    700.00000000000000
      depth:    10.000000000000000       m
      z:   -10.000000000000000



 station #           57     DB    A57
      original latitude:    700.000000
      original longitude:    300.000000
      original x:    300.000000
      original y:    700.000000
      original depth:    10.0000000      m
      horizontal distance:   0.760264456
      target x, y, z:    300.000000       700.000000      -10.0000000
      closest estimate found:    0.00000000      m away

      receiver located in slice            1
                       in element         3866
                       in acoustic domain
      at coordinates:
      xi    =    1.0000000000000000
      eta   =    1.0000000000000000
      gamma =   0.59999999999999998
      rotation matrix:
      nu1 =    1.00000000       0.00000000       0.00000000
      nu2 =    0.00000000       1.00000000       0.00000000
      nu3 =    0.00000000       0.00000000       1.00000000
      x:    300.00000000000000
      y:    700.00000000000000
      depth:    10.000000000000000       m
      z:   -10.000000000000000



 station #           58     DB    A58
      original latitude:    700.000000
      original longitude:    400.000000
      original x:    400.000000
      original y:    700.000000
      original depth:    10.0000000      m
      horizontal distance:   0.804861486
      target x, y, z:    400.000000       700.000000      -10.0000000
      closest estimate found:    0.00000000      m away

      receiver located in slice            1
                       in element         3869
                       in acoustic domain
      at coordinates:
      xi    =   -1.0000000000000000
      eta   =    1.0000000000000000
      gamma =   0.59999999999999998
      rotation matrix:
      nu1 =    1.00000000       0.00000000       0.00000000
      nu2 =    0.00000000       1.00000000       0.00000000
      nu3 =    0.00000000       0.00000000       1.00000000
      x:    400.00000000000000
      y:    700.00000000000000
      depth:    10.000000000000000       m
      z:   -10.000000000000000



 station #           59     DB    A59
      original latitude:    700.000000
      original longitude:    500.000000
      original x:    500.000000
      original y:    700.000000
      original depth:    10.0000000      m
      horizontal distance:   0.858837605
      target x, y, z:    500.000000       700.000000      -10.0000000
      closest estimate found:    0.00000000      m away

      receiver located in slice            1
                       in element         3870
                       in acoustic domain
      at coordinates:
      xi    =    1.0000000000000000
      eta   =    1.0000000000000000
      gamma =   0.59999999999999998
      rotation matrix:
      nu1 =    1.00000000       0.00000000       0.00000000
      nu2 =    0.00000000       1.00000000       0.00000000
      nu3 =    0.00000000       0.00000000       1.00000000
      x:    500.00000000000000
      y:    700.00000000000000
      depth:    10.000000000000000       m
      z:   -10.000000000000000



 station #           60     DB    A60
      original latitude:    700.000000
      original longitude:    600.000000
      original x:    600.000000
      original y:    700.000000
      original depth:    10.0000000      m
      horizontal distance:   0.920544386
      target x, y, z:    600.000000       700.000000      -10.0000000
      closest estimate found:    0.00000000      m away

      receiver located in slice            1
                       in element         3873
                       in acoustic domain
      at coordinates:
      xi    =   -1.0000000000000000
      eta   =    1.0000000000000000
      gamma =   0.59999999999999998
      rotation matrix:
      nu1 =    1.00000000       0.00000000       0.00000000
      nu2 =    0.00000000       1.00000000       0.00000000
      nu3 =    0.00000000       0.00000000       1.00000000
      x:    600.00000000000000
      y:    700.00000000000000
      depth:    10.000000000000000       m
      z:   -10.000000000000000



 station #           61     DB    A61
      original latitude:    700.000000
      original longitude:    700.000000
      original x:    700.000000
      original y:    700.000000
      original depth:    10.0000000      m
      horizontal distance:   0.988535285
      target x, y, z:    700.000000       700.000000      -10.0000000
      closest estimate found:    0.00000000      m away

      receiver located in slice            1
                       in element         3874
                       in acoustic domain
      at coordinates:
      xi    =    1.0000000000000000
      eta   =    1.0000000000000000
      gamma =   0.59999999999999998
      rotation matrix:
      nu1 =    1.00000000       0.00000000       0.00000000
      nu2 =    0.00000000       1.00000000       0.00000000
      nu3 =    0.00000000       0.00000000       1.00000000
      x:    700.00000000000000
      y:    700.00000000000000
      depth:    10.000000000000000       m
      z:   -10.000000000000000



 station #           62     DB    A62
      original latitude:    700.000000
      original longitude:    800.000000
      original x:    800.000000
      original y:    700.000000
      original depth:    10.0000000      m
      horizontal distance:    1.06160355
      target x, y, z:    800.000000       700.000000      -10.0000000
      closest estimate found:    0.00000000      m away

      receiver located in slice            1
                       in element         3876
                       in acoustic domain
      at coordinates:
      xi    =    1.0000000000000000
      eta   =    1.0000000000000000
      gamma =   0.59999999999999998
      rotation matrix:
      nu1 =    1.00000000       0.00000000       0.00000000
      nu2 =    0.00000000       1.00000000       0.00000000
      nu3 =    0.00000000       0.00000000       1.00000000
      x:    800.00000000000000
      y:    700.00000000000000
      depth:    10.000000000000000       m
      z:   -10.000000000000000



 station #           63     DB    A63
      original latitude:    700.000000
      original longitude:    900.000000
      original x:    900.000000
      original y:    700.000000
      original depth:    10.0000000      m
      horizontal distance:    1.13877213
      target x, y, z:    900.000000       700.000000      -10.0000000
      closest estimate found:    0.00000000      m away

      receiver located in slice            1
                       in element         3879
                       in acoustic domain
      at coordinates:
      xi    =   -1.0000000000000000
      eta   =    1.0000000000000000
      gamma =   0.59999999999999998
      rotation matrix:
      nu1 =    1.00000000       0.00000000       0.00000000
      nu2 =    0.00000000       1.00000000       0.00000000
      nu3 =    0.00000000       0.00000000       1.00000000
      x:    900.00000000000000
      y:    700.00000000000000
      depth:    10.000000000000000       m
      z:   -10.000000000000000



 station #           64     DB    A64
      original latitude:    800.000000
      original longitude:    100.000000
      original x:    100.000000
      original y:    800.000000
      original depth:    10.0000000      m
      horizontal distance:   0.805109918
      target x, y, z:    100.000000       800.000000      -10.0000000
      closest estimate found:    0.00000000      m away

      receiver located in slice            1
                       in element         3903
                       in acoustic domain
      at coordinates:
      xi    =   -1.0000000000000000
      eta   =    1.0000000000000000
      gamma =   0.59999999999999998
      rotation matrix:
      nu1 =    1.00000000       0.00000000       0.00000000
      nu2 =    0.00000000       1.00000000       0.00000000
      nu3 =    0.00000000       0.00000000       1.00000000
      x:    100.00000000000000
      y:    800.00000000000000
      depth:    10.000000000000000       m
      z:   -10.000000000000000



 station #           65     DB    A65
      original latitude:    800.000000
      original longitude:    200.000000
      original x:    200.000000
      original y:    800.000000
      original depth:    10.0000000      m
      horizontal distance:   0.823408782
      target x, y, z:    200.000000       800.000000      -10.0000000
      closest estimate found:    0.00000000      m away

      receiver located in slice            1
                       in element         3904
                       in acoustic domain
      at coordinates:
      xi    =    1.0000000000000000
      eta   =    1.0000000000000000
      gamma =   0.59999999999999998
      rotation matrix:
      nu1 =    1.00000000       0.00000000       0.00000000
      nu2 =    0.00000000       1.00000000       0.00000000
      nu3 =    0.00000000       0.00000000       1.00000000
      x:    200.00000000000000
      y:    800.00000000000000
      depth:    10.000000000000000       m
      z:   -10.000000000000000



 station #           66     DB    A66
      original latitude:    800.000000
      original longitude:    300.000000
      original x:    300.000000
      original y:    800.000000
      original depth:    10.0000000      m
      horizontal distance:   0.853113115
      target x, y, z:    300.000000       800.000000      -10.0000000
      closest estimate found:    0.00000000      m away

      receiver located in slice            1
                       in element         3906
                       in acoustic domain
      at coordinates:
      xi    =    1.0000000000000000
      eta   =    1.0000000000000000
      gamma =   0.59999999999999998
      rotation matrix:
      nu1 =    1.00000000       0.00000000       0.00000000
      nu2 =    0.00000000       1.00000000       0.00000000
      nu3 =    0.00000000       0.00000000       1.00000000
      x:    300.00000000000000
      y:    800.00000000000000
      depth:    10.000000000000000       m
      z:   -10.000000000000000



 station #           67     DB    A67
      original latitude:    800.000000
      original longitude:    400.000000
      original x:    400.000000
      original y:    800.000000
      original depth:    10.0000000      m
      horizontal distance:   0.893085659
      target x, y, z:    400.000000       800.000000      -10.0000000
      closest estimate found:    0.00000000      m away

      receiver located in slice            1
                       in element         3909
                       in acoustic domain
      at coordinates:
      xi    =   -1.0000000000000000
      eta   =    1.0000000000000000
      gamma =   0.59999999999999998
      rotation matrix:
      nu1 =    1.00000000       0.00000000       0.00000000
      nu2 =    0.00000000       1.00000000       0.00000000
      nu3 =    0.00000000       0.00000000       1.00000000
      x:    400.00000000000000
      y:    800.00000000000000
      depth:    10.000000000000000       m
      z:   -10.000000000000000



 station #           68     DB    A68
      original latitude:    800.000000
      original longitude:    500.000000
      original x:    500.000000
      original y:    800.000000
      original depth:    10.0000000      m
      horizontal distance:   0.942020178
      target x, y, z:    500.000000       800.000000      -10.0000000
      closest estimate found:    0.00000000      m away

      receiver located in slice            1
                       in element         3910
                       in acoustic domain
      at coordinates:
      xi    =    1.0000000000000000
      eta   =    1.0000000000000000
      gamma =   0.59999999999999998
      rotation matrix:
      nu1 =    1.00000000       0.00000000       0.00000000
      nu2 =    0.00000000       1.00000000       0.00000000
      nu3 =    0.00000000       0.00000000       1.00000000
      x:    500.00000000000000
      y:    800.00000000000000
      depth:    10.000000000000000       m
      z:   -10.000000000000000



 station #           69     DB    A69
      original latitude:    800.000000
      original longitude:    600.000000
      original x:    600.000000
      original y:    800.000000
      original depth:    10.0000000      m
      horizontal distance:   0.998600006
      target x, y, z:    600.000000       800.000000      -10.0000000
      closest estimate found:    0.00000000      m away

      receiver located in slice            1
                       in element         3913
                       in acoustic domain
      at coordinates:
      xi    =   -1.0000000000000000
      eta   =    1.0000000000000000
      gamma =   0.59999999999999998
      rotation matrix:
      nu1 =    1.00000000       0.00000000       0.00000000
      nu2 =    0.00000000       1.00000000       0.00000000
      nu3 =    0.00000000       0.00000000       1.00000000
      x:    600.00000000000000
      y:    800.00000000000000
      depth:    10.000000000000000       m
      z:   -10.000000000000000



 station #           70     DB    A70
      original latitude:    800.000000
      original longitude:    700.000000
      original x:    700.000000
      original y:    800.000000
      original depth:    10.0000000      m
      horizontal distance:    1.06160355
      target x, y, z:    700.000000       800.000000      -10.0000000
      closest estimate found:    0.00000000      m away

      receiver located in slice            1
                       in element         3914
                       in acoustic domain
      at coordinates:
      xi    =    1.0000000000000000
      eta   =    1.0000000000000000
      gamma =   0.59999999999999998
      rotation matrix:
      nu1 =    1.00000000       0.00000000       0.00000000
      nu2 =    0.00000000       1.00000000       0.00000000
      nu3 =    0.00000000       0.00000000       1.00000000
      x:    700.00000000000000
      y:    800.00000000000000
      depth:    10.000000000000000       m
      z:   -10.000000000000000



 station #           71     DB    A71
      original latitude:    800.000000
      original longitude:    800.000000
      original x:    800.000000
      original y:    800.000000
      original depth:    10.0000000      m
      horizontal distance:    1.12995660
      target x, y, z:    800.000000       800.000000      -10.0000000
      closest estimate found:    0.00000000      m away

      receiver located in slice            1
                       in element         3916
                       in acoustic domain
      at coordinates:
      xi    =    1.0000000000000000
      eta   =    1.0000000000000000
      gamma =   0.59999999999999998
      rotation matrix:
      nu1 =    1.00000000       0.00000000       0.00000000
      nu2 =    0.00000000       1.00000000       0.00000000
      nu3 =    0.00000000       0.00000000       1.00000000
      x:    800.00000000000000
      y:    800.00000000000000
      depth:    10.000000000000000       m
      z:   -10.000000000000000



 station #           72     DB    A72
      original latitude:    800.000000
      original longitude:    900.000000
      original x:    900.000000
      original y:    800.000000
      original depth:    10.0000000      m
      horizontal distance:    1.20274770
      target x, y, z:    900.000000       800.000000      -10.0000000
      closest estimate found:    0.00000000      m away

      receiver located in slice            1
                       in element         3919
                       in acoustic domain
      at coordinates:
      xi    =   -1.0000000000000000
      eta   =    1.0000000000000000
      gamma =   0.59999999999999998
      rotation matrix:
      nu1 =    1.00000000       0.00000000       0.00000000
      nu2 =    0.00000000       1.00000000       0.00000000
      nu3 =    0.00000000       0.00000000       1.00000000
      x:    900.00000000000000
      y:    800.00000000000000
      depth:    10.000000000000000       m
      z:   -10.000000000000000



 station #           73     DB    A73
      original latitude:    900.000000
      original longitude:    100.000000
      original x:    100.000000
      original y:    900.000000
      original depth:    10.0000000      m
      horizontal distance:   0.904434621
      target x, y, z:    100.000000       900.000000      -10.0000000
      closest estimate found:    0.00000000      m away

      receiver located in slice            1
                       in element         3963
                       in acoustic domain
      at coordinates:
      xi    =   -1.0000000000000000
      eta   =   -1.0000000000000000
      gamma =   0.59999999999999998
      rotation matrix:
      nu1 =    1.00000000       0.00000000       0.00000000
      nu2 =    0.00000000       1.00000000       0.00000000
      nu3 =    0.00000000       0.00000000       1.00000000
      x:    100.00000000000000
      y:    900.00000000000000
      depth:    10.000000000000000       m
      z:   -10.000000000000000



 station #           74     DB    A74
      original latitude:    900.000000
      original longitude:    200.000000
      original x:    200.000000
      original y:    900.000000
[...]
      target x, y, z:    990.000000       800.000000      -100.000000
      closest estimate found:    0.00000000      m away

      receiver located in slice            1
                       in element         3720
                       in acoustic domain
      at coordinates:
      xi    =   0.59999999999999676
      eta   =    1.0000000000000000
      gamma =   -1.0000000000000000
      rotation matrix:
      nu1 =    1.00000000       0.00000000       0.00000000
      nu2 =    0.00000000       1.00000000       0.00000000
      nu3 =    0.00000000       0.00000000       1.00000000
      x:    990.00000000000000
      y:    800.00000000000000
      depth:    100.00000000000000       m
      z:   -100.00000000000000



 station #          470     DB    F65
      original latitude:    800.000000
      original longitude:    990.000000
      original x:    990.000000
      original y:    800.000000
      original depth:    200.000000      m
      horizontal distance:    1.27142513
      target x, y, z:    990.000000       800.000000      -200.000000
      closest estimate found:    0.00000000      m away

      receiver located in slice            1
                       in element         3120
                       in acoustic domain
      at coordinates:
      xi    =   0.59999999999999676
      eta   =    1.0000000000000000
      gamma =    1.0000000000000000
      rotation matrix:
      nu1 =    1.00000000       0.00000000       0.00000000
      nu2 =    0.00000000       1.00000000       0.00000000
      nu3 =    0.00000000       0.00000000       1.00000000
      x:    990.00000000000000
      y:    800.00000000000000
      depth:    200.00000000000000       m
      z:   -200.00000000000000



 station #          471     DB    F66
      original latitude:    800.000000
      original longitude:    990.000000
      original x:    990.000000
      original y:    800.000000
      original depth:    300.000000      m
      horizontal distance:    1.27142513
      target x, y, z:    990.000000       800.000000      -300.000000
      closest estimate found:    0.00000000      m away

      receiver located in slice            1
                       in element         2720
                       in acoustic domain
      at coordinates:
      xi    =   0.59999999999999676
      eta   =    1.0000000000000000
      gamma =    1.0000000000000000
      rotation matrix:
      nu1 =    1.00000000       0.00000000       0.00000000
      nu2 =    0.00000000       1.00000000       0.00000000
      nu3 =    0.00000000       0.00000000       1.00000000
      x:    990.00000000000000
      y:    800.00000000000000
      depth:    300.00000000000000       m
      z:   -300.00000000000000



 station #          472     DB    F67
      original latitude:    800.000000
      original longitude:    990.000000
      original x:    990.000000
      original y:    800.000000
      original depth:    400.000000      m
      horizontal distance:    1.27142513
      target x, y, z:    990.000000       800.000000      -400.000000
      closest estimate found:    0.00000000      m away

      receiver located in slice            1
                       in element         2520
                       in acoustic domain
      at coordinates:
      xi    =   0.59999999999999676
      eta   =    1.0000000000000000
      gamma =   -1.0000000000000000
      rotation matrix:
      nu1 =    1.00000000       0.00000000       0.00000000
      nu2 =    0.00000000       1.00000000       0.00000000
      nu3 =    0.00000000       0.00000000       1.00000000
      x:    990.00000000000000
      y:    800.00000000000000
      depth:    400.00000000000000       m
      z:   -400.00000000000000



 station #          473     DB    F68
      original latitude:    800.000000
      original longitude:    990.000000
      original x:    990.000000
      original y:    800.000000
      original depth:    500.000000      m
      horizontal distance:    1.27142513
      target x, y, z:    990.000000       800.000000      -500.000000
      closest estimate found:    0.00000000      m away

      receiver located in slice            1
                       in element         1920
                       in acoustic domain
      at coordinates:
      xi    =   0.59999999999999676
      eta   =    1.0000000000000000
      gamma =    1.0000000000000000
      rotation matrix:
      nu1 =    1.00000000       0.00000000       0.00000000
      nu2 =    0.00000000       1.00000000       0.00000000
      nu3 =    0.00000000       0.00000000       1.00000000
      x:    990.00000000000000
      y:    800.00000000000000
      depth:    500.00000000000000       m
      z:   -500.00000000000000



 station #          474     DB    F69
      original latitude:    800.000000
      original longitude:    990.000000
      original x:    990.000000
      original y:    800.000000
      original depth:    600.000000      m
      horizontal distance:    1.27142513
      target x, y, z:    990.000000       800.000000      -600.000000
      closest estimate found:    0.00000000      m away

      receiver located in slice            1
                       in element         1720
                       in acoustic domain
      at coordinates:
      xi    =   0.59999999999999676
      eta   =    1.0000000000000000
      gamma =   -1.0000000000000000
      rotation matrix:
      nu1 =    1.00000000       0.00000000       0.00000000
      nu2 =    0.00000000       1.00000000       0.00000000
      nu3 =    0.00000000       0.00000000       1.00000000
      x:    990.00000000000000
      y:    800.00000000000000
      depth:    600.00000000000000       m
      z:   -600.00000000000000



 station #          475     DB    F70
      original latitude:    800.000000
      original longitude:    990.000000
      original x:    990.000000
      original y:    800.000000
      original depth:    700.000000      m
      horizontal distance:    1.27142513
      target x, y, z:    990.000000       800.000000      -700.000000
      closest estimate found:    0.00000000      m away

      receiver located in slice            1
                       in element         1120
                       in acoustic domain
      at coordinates:
      xi    =   0.59999999999999676
      eta   =    1.0000000000000000
      gamma =    1.0000000000000000
      rotation matrix:
      nu1 =    1.00000000       0.00000000       0.00000000
      nu2 =    0.00000000       1.00000000       0.00000000
      nu3 =    0.00000000       0.00000000       1.00000000
      x:    990.00000000000000
      y:    800.00000000000000
      depth:    700.00000000000000       m
      z:   -700.00000000000000



 station #          476     DB    F71
      original latitude:    800.000000
      original longitude:    990.000000
      original x:    990.000000
      original y:    800.000000
      original depth:    800.000000      m
      horizontal distance:    1.27142513
      target x, y, z:    990.000000       800.000000      -800.000000
      closest estimate found:    0.00000000      m away

      receiver located in slice            1
                       in element          720
                       in acoustic domain
      at coordinates:
      xi    =   0.59999999999999676
      eta   =    1.0000000000000000
      gamma =    1.0000000000000000
      rotation matrix:
      nu1 =    1.00000000       0.00000000       0.00000000
      nu2 =    0.00000000       1.00000000       0.00000000
      nu3 =    0.00000000       0.00000000       1.00000000
      x:    990.00000000000000
      y:    800.00000000000000
      depth:    800.00000000000000       m
      z:   -800.00000000000000



 station #          477     DB    F72
      original latitude:    800.000000
      original longitude:    990.000000
      original x:    990.000000
      original y:    800.000000
      original depth:    900.000000      m
      horizontal distance:    1.27142513
      target x, y, z:    990.000000       800.000000      -900.000000
      closest estimate found:    0.00000000      m away

      receiver located in slice            1
                       in element          520
                       in acoustic domain
      at coordinates:
      xi    =   0.59999999999999676
      eta   =    1.0000000000000000
      gamma =   -1.0000000000000000
      rotation matrix:
      nu1 =    1.00000000       0.00000000       0.00000000
      nu2 =    0.00000000       1.00000000       0.00000000
      nu3 =    0.00000000       0.00000000       1.00000000
      x:    990.00000000000000
      y:    800.00000000000000
      depth:    900.00000000000000       m
      z:   -900.00000000000000



 station #          478     DB    F73
      original latitude:    900.000000
      original longitude:    990.000000
      original x:    990.000000
      original y:    900.000000
      original depth:    100.000000      m
      horizontal distance:    1.33653355
      target x, y, z:    990.000000       900.000000      -100.000000
      closest estimate found:    0.00000000      m away

      receiver located in slice            1
                       in element         3780
                       in acoustic domain
      at coordinates:
      xi    =   0.60000000000000120
      eta   =   -1.0000000000000000
      gamma =   -1.0000000000000000
      rotation matrix:
      nu1 =    1.00000000       0.00000000       0.00000000
      nu2 =    0.00000000       1.00000000       0.00000000
      nu3 =    0.00000000       0.00000000       1.00000000
      x:    990.00000000000000
      y:    900.00000000000000
      depth:    100.00000000000000       m
      z:   -100.00000000000000



 station #          479     DB    F74
      original latitude:    900.000000
      original longitude:    990.000000
      original x:    990.000000
      original y:    900.000000
      original depth:    200.000000      m
      horizontal distance:    1.33653355
      target x, y, z:    990.000000       900.000000      -200.000000
      closest estimate found:    0.00000000      m away

      receiver located in slice            1
                       in element         3180
                       in acoustic domain
      at coordinates:
      xi    =   0.60000000000000120
      eta   =   -1.0000000000000000
      gamma =    1.0000000000000000
      rotation matrix:
      nu1 =    1.00000000       0.00000000       0.00000000
      nu2 =    0.00000000       1.00000000       0.00000000
      nu3 =    0.00000000       0.00000000       1.00000000
      x:    990.00000000000000
      y:    900.00000000000000
      depth:    200.00000000000000       m
      z:   -200.00000000000000



 station #          480     DB    F75
      original latitude:    900.000000
      original longitude:    990.000000
      original x:    990.000000
      original y:    900.000000
      original depth:    300.000000      m
      horizontal distance:    1.33653355
      target x, y, z:    990.000000       900.000000      -300.000000
      closest estimate found:    0.00000000      m away

      receiver located in slice            1
                       in element         2780
                       in acoustic domain
      at coordinates:
      xi    =   0.60000000000000120
      eta   =   -1.0000000000000000
      gamma =    1.0000000000000000
      rotation matrix:
      nu1 =    1.00000000       0.00000000       0.00000000
      nu2 =    0.00000000       1.00000000       0.00000000
      nu3 =    0.00000000       0.00000000       1.00000000
      x:    990.00000000000000
      y:    900.00000000000000
      depth:    300.00000000000000       m
      z:   -300.00000000000000



 station #          481     DB    F76
      original latitude:    900.000000
      original longitude:    990.000000
      original x:    990.000000
      original y:    900.000000
      original depth:    400.000000      m
      horizontal distance:    1.33653355
      target x, y, z:    990.000000       900.000000      -400.000000
      closest estimate found:    0.00000000      m away

      receiver located in slice            1
                       in element         2580
                       in acoustic domain
      at coordinates:
      xi    =   0.60000000000000120
      eta   =   -1.0000000000000000
      gamma =   -1.0000000000000000
      rotation matrix:
      nu1 =    1.00000000       0.00000000       0.00000000
      nu2 =    0.00000000       1.00000000       0.00000000
      nu3 =    0.00000000       0.00000000       1.00000000
      x:    990.00000000000000
      y:    900.00000000000000
      depth:    400.00000000000000       m
      z:   -400.00000000000000



 station #          482     DB    F77
      original latitude:    900.000000
      original longitude:    990.000000
      original x:    990.000000
      original y:    900.000000
      original depth:    500.000000      m
      horizontal distance:    1.33653355
      target x, y, z:    990.000000       900.000000      -500.000000
      closest estimate found:    0.00000000      m away

      receiver located in slice            1
                       in element         1980
                       in acoustic domain
      at coordinates:
      xi    =   0.60000000000000120
      eta   =   -1.0000000000000000
      gamma =    1.0000000000000000
      rotation matrix:
      nu1 =    1.00000000       0.00000000       0.00000000
      nu2 =    0.00000000       1.00000000       0.00000000
      nu3 =    0.00000000       0.00000000       1.00000000
      x:    990.00000000000000
      y:    900.00000000000000
      depth:    500.00000000000000       m
      z:   -500.00000000000000



 station #          483     DB    F78
      original latitude:    900.000000
      original longitude:    990.000000
      original x:    990.000000
      original y:    900.000000
      original depth:    600.000000      m
      horizontal distance:    1.33653355
      target x, y, z:    990.000000       900.000000      -600.000000
      closest estimate found:    0.00000000      m away

      receiver located in slice            1
                       in element         1780
                       in acoustic domain
      at coordinates:
      xi    =   0.60000000000000120
      eta   =   -1.0000000000000000
      gamma =   -1.0000000000000000
      rotation matrix:
      nu1 =    1.00000000       0.00000000       0.00000000
      nu2 =    0.00000000       1.00000000       0.00000000
      nu3 =    0.00000000       0.00000000       1.00000000
      x:    990.00000000000000
      y:    900.00000000000000
      depth:    600.00000000000000       m
      z:   -600.00000000000000



 station #          484     DB    F79
      original latitude:    900.000000
      original longitude:    990.000000
      original x:    990.000000
      original y:    900.000000
      original depth:    700.000000      m
      horizontal distance:    1.33653355
      target x, y, z:    990.000000       900.000000      -700.000000
      closest estimate found:    0.00000000      m away

      receiver located in slice            1
                       in element         1180
                       in acoustic domain
      at coordinates:
      xi    =   0.60000000000000120
      eta   =   -1.0000000000000000
      gamma =    1.0000000000000000
      rotation matrix:
      nu1 =    1.00000000       0.00000000       0.00000000
      nu2 =    0.00000000       1.00000000       0.00000000
      nu3 =    0.00000000       0.00000000       1.00000000
      x:    990.00000000000000
      y:    900.00000000000000
      depth:    700.00000000000000       m
      z:   -700.00000000000000



 station #          485     DB    F80
      original latitude:    900.000000
      original longitude:    990.000000
      original x:    990.000000
      original y:    900.000000
      original depth:    800.000000      m
      horizontal distance:    1.33653355
      target x, y, z:    990.000000       900.000000      -800.000000
      closest estimate found:    0.00000000      m away

      receiver located in slice            1
                       in element          780
                       in acoustic domain
      at coordinates:
      xi    =   0.60000000000000120
      eta   =   -1.0000000000000000
      gamma =    1.0000000000000000
      rotation matrix:
      nu1 =    1.00000000       0.00000000       0.00000000
      nu2 =    0.00000000       1.00000000       0.00000000
      nu3 =    0.00000000       0.00000000       1.00000000
      x:    990.00000000000000
      y:    900.00000000000000
      depth:    800.00000000000000       m
      z:   -800.00000000000000



 station #          486     DB    F81
      original latitude:    900.000000
      original longitude:    990.000000
      original x:    990.000000
      original y:    900.000000
      original depth:    900.000000      m
      horizontal distance:    1.33653355
      target x, y, z:    990.000000       900.000000      -900.000000
      closest estimate found:    0.00000000      m away

      receiver located in slice            1
                       in element          580
                       in acoustic domain
      at coordinates:
      xi    =   0.60000000000000120
      eta   =   -1.0000000000000000
      gamma =   -1.0000000000000000
      rotation matrix:
      nu1 =    1.00000000       0.00000000       0.00000000
      nu2 =    0.00000000       1.00000000       0.00000000
      nu3 =    0.00000000       0.00000000       1.00000000
      x:    990.00000000000000
      y:    900.00000000000000
      depth:    900.00000000000000       m
      z:   -900.00000000000000


 maximum error in location of all the receivers:    3.41079026E-13  m

 Elapsed time for receiver detection in seconds =    2.9023000000000021E-002

 End of receiver detection - done

 **********************************
 Inverse problem for model - event:            1
 **********************************

 source type               : moment
 getting point sources from: DATA/CMTSOLUTION.1
 number of point sources   :            1

 **********************************
 Inverse problem for model - event:            2
 **********************************

 source type               : moment
 getting point sources from: DATA/CMTSOLUTION.7
 number of point sources   :            1


 **************************
 Inverse problem for model:
 **************************
 run mode                        : l-bfgs
 total number of events          :            2
 total number of frequency bands :            1
 maximum number of iterations    :            3

 preparing wavefields

 ...continuing output in file: ./OUTPUT_FILES//output_solver_event00001_iter00000.txt

 preparing wavefields
 preparing wavefields

 ...continuing output in file: ./OUTPUT_FILES//output_solver_event00002_iter00000.txt

 preparing wavefields
 preparing wavefields

 ...continuing output in file: ./OUTPUT_FILES//output_solver_event00001_iter00000.txt

 preparing wavefields
 preparing wavefields

 ...continuing output in file: ./OUTPUT_FILES//output_solver_event00002_iter00000.txt

 preparing wavefields
 preparing wavefields

 ...continuing output in file: ./OUTPUT_FILES//output_solver_event00001_iter00001.txt

 preparing wavefields
 preparing wavefields

 ...continuing output in file: ./OUTPUT_FILES//output_solver_event00002_iter00001.txt

 preparing wavefields
 preparing wavefields

 ...continuing output in file: ./OUTPUT_FILES//output_solver_event00001_iter00002.txt

 preparing wavefields
 preparing wavefields

 ...continuing output in file: ./OUTPUT_FILES//output_solver_event00002_iter00002.txt

 preparing wavefields
 preparing wavefields

 ...continuing output in file: ./OUTPUT_FILES//output_solver_event00001_iter00003.txt

 preparing wavefields
 preparing wavefields

 ...continuing output in file: ./OUTPUT_FILES//output_solver_event00002_iter00003.txt

 preparing wavefields
